  Page 1                                    Sun Jan 11 16:23:32 2026

  ******************************************************************
  *                           E P A N E T                          *
  *                   Hydraulic and Water Quality                  *
  *                   Analysis for Pipe Networks                   *
  *                         Version 2.2                            *
  ******************************************************************
  
  Analysis begun Sun Jan 11 16:23:32 2026

   
  Hydraulic Status:
  -----------------------------------------------------------------------
     0:00:00: Pump WELL_PUMP changed by Tank T1 control
     0:00:00: Unbalanced after 51 trials (flow change = 0.002417)
     0:00:00: Reservoir RES1 is closed
     0:00:00: Tank T1 is emptying at 138.60 ft
     0:00:00: Tank M1 is emptying at 135.00 ft
     0:00:00: Tank J_T1_SUC is closed at 130.00 ft
     0:00:00: Tank J_BP1_SUC is filling at 130.00 ft
     0:00:00: FCV V3 open but cannot deliver flow
     0:00:00: FCV V8 open but cannot deliver flow
     0:00:00: FCV V10 open but cannot deliver flow
     0:00:00: FCV V11 open but cannot deliver flow
     0:00:00: FCV V12 open but cannot deliver flow
   
  WARNING: Negative pressures at 0:00:00 hrs.
  WARNING: FCV V3 open but cannot deliver flow at 0:00:00 hrs.
  WARNING: FCV V8 open but cannot deliver flow at 0:00:00 hrs.
  WARNING: FCV V10 open but cannot deliver flow at 0:00:00 hrs.
  WARNING: FCV V11 open but cannot deliver flow at 0:00:00 hrs.
  WARNING: FCV V12 open but cannot deliver flow at 0:00:00 hrs.
  WARNING: Pump BOOSTER_PUMP open but exceeds maximum flow at 0:00:00 hrs.
  WARNING: System unbalanced at 0:00:00 hrs.
   
     0:00:44: Balanced after 17 trials
     0:00:44: Tank J_T1_SUC is filling at 130.00 ft
     0:00:44: Tank J_BP1_SUC is emptying at 134.60 ft
   
  WARNING: Negative pressures at 0:00:44 hrs.
  WARNING: FCV V3 open but cannot deliver flow at 0:00:44 hrs.
  WARNING: FCV V8 open but cannot deliver flow at 0:00:44 hrs.
  WARNING: FCV V10 open but cannot deliver flow at 0:00:44 hrs.
  WARNING: FCV V11 open but cannot deliver flow at 0:00:44 hrs.
  WARNING: FCV V12 open but cannot deliver flow at 0:00:44 hrs.
   
     0:01:26: Pump WELL_PUMP changed by Tank T1 control
     0:01:26: Unbalanced after 51 trials (flow change = 0.013302)
     0:01:26: Reservoir RES1 is emptying
     0:01:26: Tank M1 is filling at 40.00 ft
     0:01:26: Tank J_T1_SUC is emptying at 135.33 ft
     0:01:26: Pipe J_M1_SNT1_160 changed from open to temporarily closed
     0:01:26: Pipe J_M1_SNT2_Stub_55 changed from open to temporarily closed
     0:01:26: Pump WELL_PUMP changed from closed to open
     0:01:26: Pump BOOSTER_PUMP changed from open to temporarily closed
   
  WARNING: Negative pressures at 0:01:26 hrs.
  WARNING: FCV V3 open but cannot deliver flow at 0:01:26 hrs.
  WARNING: FCV V8 open but cannot deliver flow at 0:01:26 hrs.
  WARNING: FCV V10 open but cannot deliver flow at 0:01:26 hrs.
  WARNING: FCV V11 open but cannot deliver flow at 0:01:26 hrs.
  WARNING: FCV V12 open but cannot deliver flow at 0:01:26 hrs.
  WARNING: Pump WELL_PUMP open but exceeds maximum flow at 0:01:26 hrs.
  WARNING: System unbalanced at 0:01:26 hrs.
  WARNING: Node J_SNT1_160 disconnected at 0:01:26 hrs
  WARNING: Node J_V1_IN_160 disconnected at 0:01:26 hrs
  WARNING: Node J_V1_OUT_160 disconnected at 0:01:26 hrs
  WARNING: Node J_SNT1_360 disconnected at 0:01:26 hrs
  WARNING: Node J_V2_IN_360 disconnected at 0:01:26 hrs
  WARNING: Node J_V2_OUT_360 disconnected at 0:01:26 hrs
  WARNING: Node J_SNT1_445 disconnected at 0:01:26 hrs
  WARNING: Node J_TEE_SNT1_445 disconnected at 0:01:26 hrs
  WARNING: Node J_CNT1_Stub disconnected at 0:01:26 hrs
  WARNING: Node J_CNT1 disconnected at 0:01:26 hrs
  WARNING: 398 additional nodes disconnected at 0:01:26 hrs
  WARNING: System disconnected because of Link J_M1_SNT1_160
   
     0:02:00: Pump BOOSTER_PUMP changed by Tank T1 control
     0:02:00: Unbalanced after 51 trials (flow change = 0.022600)
     0:02:00: Tank M1 is emptying at 65.88 ft
     0:02:00: Pipe J_M1_SNT1_160 changed from temporarily closed to open
     0:02:00: Pipe J_M1_SNT2_Stub_55 changed from temporarily closed to open
     0:02:00: Pump BOOSTER_PUMP changed from temporarily closed to open
   
  WARNING: Negative pressures at 0:02:00 hrs.
  WARNING: FCV V3 open but cannot deliver flow at 0:02:00 hrs.
  WARNING: FCV V8 open but cannot deliver flow at 0:02:00 hrs.
  WARNING: FCV V10 open but cannot deliver flow at 0:02:00 hrs.
  WARNING: FCV V11 open but cannot deliver flow at 0:02:00 hrs.
  WARNING: FCV V12 open but cannot deliver flow at 0:02:00 hrs.
  WARNING: Pump WELL_PUMP open but exceeds maximum flow at 0:02:00 hrs.
  WARNING: System unbalanced at 0:02:00 hrs.
   
     0:02:14: Unbalanced after 51 trials (flow change = 0.014895)
   
  WARNING: Negative pressures at 0:02:14 hrs.
  WARNING: FCV V3 open but cannot deliver flow at 0:02:14 hrs.
  WARNING: FCV V8 open but cannot deliver flow at 0:02:14 hrs.
  WARNING: FCV V10 open but cannot deliver flow at 0:02:14 hrs.
  WARNING: FCV V11 open but cannot deliver flow at 0:02:14 hrs.
  WARNING: FCV V12 open but cannot deliver flow at 0:02:14 hrs.
  WARNING: Pump WELL_PUMP open but exceeds maximum flow at 0:02:14 hrs.
  WARNING: System unbalanced at 0:02:14 hrs.
   
     0:02:56: Unbalanced after 51 trials (flow change = 0.022540)
     0:02:56: Tank M1 is filling at 40.00 ft
     0:02:56: Pipe J_M1_SNT1_160 changed from open to temporarily closed
     0:02:56: Pipe J_M1_SNT2_Stub_55 changed from open to temporarily closed
     0:02:56: Pump BOOSTER_PUMP changed from open to temporarily closed
   
  WARNING: Negative pressures at 0:02:56 hrs.
  WARNING: FCV V3 open but cannot deliver flow at 0:02:56 hrs.
  WARNING: FCV V8 open but cannot deliver flow at 0:02:56 hrs.
  WARNING: FCV V10 open but cannot deliver flow at 0:02:56 hrs.
  WARNING: FCV V11 open but cannot deliver flow at 0:02:56 hrs.
  WARNING: FCV V12 open but cannot deliver flow at 0:02:56 hrs.
  WARNING: Pump WELL_PUMP open but exceeds maximum flow at 0:02:56 hrs.
  WARNING: System unbalanced at 0:02:56 hrs.
  WARNING: Node J_SNT1_160 disconnected at 0:02:56 hrs
  WARNING: Node J_V1_IN_160 disconnected at 0:02:56 hrs
  WARNING: Node J_V1_OUT_160 disconnected at 0:02:56 hrs
  WARNING: Node J_SNT1_360 disconnected at 0:02:56 hrs
  WARNING: Node J_V2_IN_360 disconnected at 0:02:56 hrs
  WARNING: Node J_V2_OUT_360 disconnected at 0:02:56 hrs
  WARNING: Node J_SNT1_445 disconnected at 0:02:56 hrs
  WARNING: Node J_TEE_SNT1_445 disconnected at 0:02:56 hrs
  WARNING: Node J_CNT1_Stub disconnected at 0:02:56 hrs
  WARNING: Node J_CNT1 disconnected at 0:02:56 hrs
  WARNING: 398 additional nodes disconnected at 0:02:56 hrs
  WARNING: System disconnected because of Link J_M1_SNT1_160
   
     0:04:00: Pump BOOSTER_PUMP changed by Tank T1 control
     0:04:00: Unbalanced after 51 trials (flow change = 0.008833)
     0:04:00: Tank T1 is filling at 46.20 ft
     0:04:00: Tank M1 is emptying at 70.63 ft
     0:04:00: Pipe J_M1_SNT1_160 changed from temporarily closed to open
     0:04:00: Pipe J_M1_SNT2_Stub_55 changed from temporarily closed to open
     0:04:00: Pump BOOSTER_PUMP changed from temporarily closed to open
   
  WARNING: Negative pressures at 0:04:00 hrs.
  WARNING: FCV V3 open but cannot deliver flow at 0:04:00 hrs.
  WARNING: FCV V8 open but cannot deliver flow at 0:04:00 hrs.
  WARNING: FCV V10 open but cannot deliver flow at 0:04:00 hrs.
  WARNING: FCV V11 open but cannot deliver flow at 0:04:00 hrs.
  WARNING: FCV V12 open but cannot deliver flow at 0:04:00 hrs.
  WARNING: Pump WELL_PUMP open but exceeds maximum flow at 0:04:00 hrs.
  WARNING: System unbalanced at 0:04:00 hrs.
   
     0:04:14: Unbalanced after 51 trials (flow change = 0.013990)
     0:04:14: Tank T1 is emptying at 54.37 ft
     0:04:14: Tank M1 is filling at 39.04 ft
     0:04:14: Pipe J_M1_SNT1_160 changed from open to temporarily closed
     0:04:14: Pipe J_M1_SNT2_Stub_55 changed from open to temporarily closed
     0:04:14: Pump BOOSTER_PUMP changed from open to temporarily closed
   
  WARNING: Negative pressures at 0:04:14 hrs.
  WARNING: FCV V3 open but cannot deliver flow at 0:04:14 hrs.
  WARNING: FCV V8 open but cannot deliver flow at 0:04:14 hrs.
  WARNING: FCV V10 open but cannot deliver flow at 0:04:14 hrs.
  WARNING: FCV V11 open but cannot deliver flow at 0:04:14 hrs.
  WARNING: FCV V12 open but cannot deliver flow at 0:04:14 hrs.
  WARNING: Pump WELL_PUMP open but exceeds maximum flow at 0:04:14 hrs.
  WARNING: System unbalanced at 0:04:14 hrs.
  WARNING: Node J_SNT1_160 disconnected at 0:04:14 hrs
  WARNING: Node J_V1_IN_160 disconnected at 0:04:14 hrs
  WARNING: Node J_V1_OUT_160 disconnected at 0:04:14 hrs
  WARNING: Node J_SNT1_360 disconnected at 0:04:14 hrs
  WARNING: Node J_V2_IN_360 disconnected at 0:04:14 hrs
  WARNING: Node J_V2_OUT_360 disconnected at 0:04:14 hrs
  WARNING: Node J_SNT1_445 disconnected at 0:04:14 hrs
  WARNING: Node J_TEE_SNT1_445 disconnected at 0:04:14 hrs
  WARNING: Node J_CNT1_Stub disconnected at 0:04:14 hrs
  WARNING: Node J_CNT1 disconnected at 0:04:14 hrs
  WARNING: 398 additional nodes disconnected at 0:04:14 hrs
  WARNING: System disconnected because of Link J_M1_SNT1_160
   
     0:04:37: Pump BOOSTER_PUMP changed by Tank T1 control
     0:04:37: Unbalanced after 51 trials (flow change = 0.009653)
     0:04:37: Tank T1 is filling at 46.37 ft
     0:04:37: Tank M1 is emptying at 51.37 ft
     0:04:37: Pipe J_M1_SNT1_160 changed from temporarily closed to open
     0:04:37: Pipe J_M1_SNT2_Stub_55 changed from temporarily closed to open
     0:04:37: Pump BOOSTER_PUMP changed from temporarily closed to open
   
  WARNING: Negative pressures at 0:04:37 hrs.
  WARNING: FCV V3 open but cannot deliver flow at 0:04:37 hrs.
  WARNING: FCV V8 open but cannot deliver flow at 0:04:37 hrs.
  WARNING: FCV V10 open but cannot deliver flow at 0:04:37 hrs.
  WARNING: FCV V11 open but cannot deliver flow at 0:04:37 hrs.
  WARNING: FCV V12 open but cannot deliver flow at 0:04:37 hrs.
  WARNING: Pump WELL_PUMP open but exceeds maximum flow at 0:04:37 hrs.
  WARNING: System unbalanced at 0:04:37 hrs.
   
     0:04:43: Unbalanced after 51 trials (flow change = 0.041199)
     0:04:43: Tank T1 is emptying at 48.16 ft
     0:04:43: Tank M1 is filling at 39.09 ft
     0:04:43: Pipe J_M1_SNT1_160 changed from open to temporarily closed
     0:04:43: Pipe J_M1_SNT2_Stub_55 changed from open to temporarily closed
     0:04:43: Pump BOOSTER_PUMP changed from open to temporarily closed
   
  WARNING: Negative pressures at 0:04:43 hrs.
  WARNING: FCV V3 open but cannot deliver flow at 0:04:43 hrs.
  WARNING: FCV V8 open but cannot deliver flow at 0:04:43 hrs.
  WARNING: FCV V10 open but cannot deliver flow at 0:04:43 hrs.
  WARNING: FCV V11 open but cannot deliver flow at 0:04:43 hrs.
  WARNING: FCV V12 open but cannot deliver flow at 0:04:43 hrs.
  WARNING: Pump WELL_PUMP open but exceeds maximum flow at 0:04:43 hrs.
  WARNING: System unbalanced at 0:04:43 hrs.
  WARNING: Node J_SNT1_160 disconnected at 0:04:43 hrs
  WARNING: Node J_V1_IN_160 disconnected at 0:04:43 hrs
  WARNING: Node J_V1_OUT_160 disconnected at 0:04:43 hrs
  WARNING: Node J_SNT1_360 disconnected at 0:04:43 hrs
  WARNING: Node J_V2_IN_360 disconnected at 0:04:43 hrs
  WARNING: Node J_V2_OUT_360 disconnected at 0:04:43 hrs
  WARNING: Node J_SNT1_445 disconnected at 0:04:43 hrs
  WARNING: Node J_TEE_SNT1_445 disconnected at 0:04:43 hrs
  WARNING: Node J_CNT1_Stub disconnected at 0:04:43 hrs
  WARNING: Node J_CNT1 disconnected at 0:04:43 hrs
  WARNING: 398 additional nodes disconnected at 0:04:43 hrs
  WARNING: System disconnected because of Link J_M1_SNT1_160
   
     0:04:51: Pump BOOSTER_PUMP changed by Tank T1 control
     0:04:51: Balanced after 41 trials
     0:04:51: Tank T1 is filling at 46.14 ft
     0:04:51: Tank M1 is emptying at 42.84 ft
     0:04:51: Pipe J_T1_M1 changed from open to temporarily closed
     0:04:51: Pipe J_M1_SNT1_160 changed from temporarily closed to open
     0:04:51: Pipe J_M1_SNT2_Stub_55 changed from temporarily closed to open
     0:04:51: Pump BOOSTER_PUMP changed from temporarily closed to open
   
  WARNING: Maximum trials exceeded at 0:04:51 hrs. System may be unstable.
  WARNING: Negative pressures at 0:04:51 hrs.
  WARNING: FCV V3 open but cannot deliver flow at 0:04:51 hrs.
  WARNING: FCV V8 open but cannot deliver flow at 0:04:51 hrs.
  WARNING: FCV V10 open but cannot deliver flow at 0:04:51 hrs.
  WARNING: FCV V11 open but cannot deliver flow at 0:04:51 hrs.
  WARNING: FCV V12 open but cannot deliver flow at 0:04:51 hrs.
  WARNING: Pump WELL_PUMP open but exceeds maximum flow at 0:04:51 hrs.
   
     0:04:53: Unbalanced after 51 trials (flow change = 0.030275)
     0:04:53: Tank T1 is emptying at 46.27 ft
     0:04:53: Tank M1 is filling at 39.07 ft
     0:04:53: Pipe J_T1_M1 changed from temporarily closed to open
     0:04:53: Pipe J_M1_SNT1_160 changed from open to temporarily closed
     0:04:53: Pipe J_M1_SNT2_Stub_55 changed from open to temporarily closed
     0:04:53: Pump BOOSTER_PUMP changed from open to temporarily closed
   
  WARNING: Negative pressures at 0:04:53 hrs.
  WARNING: FCV V3 open but cannot deliver flow at 0:04:53 hrs.
  WARNING: FCV V8 open but cannot deliver flow at 0:04:53 hrs.
  WARNING: FCV V10 open but cannot deliver flow at 0:04:53 hrs.
  WARNING: FCV V11 open but cannot deliver flow at 0:04:53 hrs.
  WARNING: FCV V12 open but cannot deliver flow at 0:04:53 hrs.
  WARNING: Pump WELL_PUMP open but exceeds maximum flow at 0:04:53 hrs.
  WARNING: System unbalanced at 0:04:53 hrs.
  WARNING: Node J_SNT1_160 disconnected at 0:04:53 hrs
  WARNING: Node J_V1_IN_160 disconnected at 0:04:53 hrs
  WARNING: Node J_V1_OUT_160 disconnected at 0:04:53 hrs
  WARNING: Node J_SNT1_360 disconnected at 0:04:53 hrs
  WARNING: Node J_V2_IN_360 disconnected at 0:04:53 hrs
  WARNING: Node J_V2_OUT_360 disconnected at 0:04:53 hrs
  WARNING: Node J_SNT1_445 disconnected at 0:04:53 hrs
  WARNING: Node J_TEE_SNT1_445 disconnected at 0:04:53 hrs
  WARNING: Node J_CNT1_Stub disconnected at 0:04:53 hrs
  WARNING: Node J_CNT1 disconnected at 0:04:53 hrs
  WARNING: 398 additional nodes disconnected at 0:04:53 hrs
  WARNING: System disconnected because of Link J_M1_SNT1_160
   
     0:06:00: Pump BOOSTER_PUMP changed by Tank T1 control
     0:06:00: Unbalanced after 51 trials (flow change = 0.006173)
     0:06:00: Tank T1 is filling at 46.20 ft
     0:06:00: Tank M1 is emptying at 68.93 ft
     0:06:00: Tank J_BP1_SUC is filling at 77.67 ft
     0:06:00: Pipe J_M1_SNT1_160 changed from temporarily closed to open
     0:06:00: Pipe J_M1_SNT2_Stub_55 changed from temporarily closed to open
     0:06:00: Pump BOOSTER_PUMP changed from temporarily closed to open
   
  WARNING: Negative pressures at 0:06:00 hrs.
  WARNING: FCV V3 open but cannot deliver flow at 0:06:00 hrs.
  WARNING: FCV V8 open but cannot deliver flow at 0:06:00 hrs.
  WARNING: FCV V10 open but cannot deliver flow at 0:06:00 hrs.
  WARNING: FCV V11 open but cannot deliver flow at 0:06:00 hrs.
  WARNING: FCV V12 open but cannot deliver flow at 0:06:00 hrs.
  WARNING: Pump WELL_PUMP open but exceeds maximum flow at 0:06:00 hrs.
  WARNING: System unbalanced at 0:06:00 hrs.
   
     0:06:12: Balanced after 11 trials
     0:06:12: Tank T1 is emptying at 52.99 ft
     0:06:12: Tank J_BP1_SUC is emptying at 78.10 ft
   
  WARNING: Negative pressures at 0:06:12 hrs.
  WARNING: FCV V3 open but cannot deliver flow at 0:06:12 hrs.
  WARNING: FCV V8 open but cannot deliver flow at 0:06:12 hrs.
  WARNING: FCV V10 open but cannot deliver flow at 0:06:12 hrs.
  WARNING: FCV V11 open but cannot deliver flow at 0:06:12 hrs.
  WARNING: FCV V12 open but cannot deliver flow at 0:06:12 hrs.
  WARNING: Pump WELL_PUMP open but exceeds maximum flow at 0:06:12 hrs.
   
     0:06:13: Unbalanced after 51 trials (flow change = 0.032812)
     0:06:13: Tank M1 is filling at 39.17 ft
     0:06:13: Pipe J_M1_SNT1_160 changed from open to temporarily closed
     0:06:13: Pipe J_M1_SNT2_Stub_55 changed from open to temporarily closed
     0:06:13: Pump BOOSTER_PUMP changed from open to temporarily closed
   
  WARNING: Negative pressures at 0:06:13 hrs.
  WARNING: FCV V3 open but cannot deliver flow at 0:06:13 hrs.
  WARNING: FCV V8 open but cannot deliver flow at 0:06:13 hrs.
  WARNING: FCV V10 open but cannot deliver flow at 0:06:13 hrs.
  WARNING: FCV V11 open but cannot deliver flow at 0:06:13 hrs.
  WARNING: FCV V12 open but cannot deliver flow at 0:06:13 hrs.
  WARNING: Pump WELL_PUMP open but exceeds maximum flow at 0:06:13 hrs.
  WARNING: System unbalanced at 0:06:13 hrs.
  WARNING: Node J_SNT1_160 disconnected at 0:06:13 hrs
  WARNING: Node J_V1_IN_160 disconnected at 0:06:13 hrs
  WARNING: Node J_V1_OUT_160 disconnected at 0:06:13 hrs
  WARNING: Node J_SNT1_360 disconnected at 0:06:13 hrs
  WARNING: Node J_V2_IN_360 disconnected at 0:06:13 hrs
  WARNING: Node J_V2_OUT_360 disconnected at 0:06:13 hrs
  WARNING: Node J_SNT1_445 disconnected at 0:06:13 hrs
  WARNING: Node J_TEE_SNT1_445 disconnected at 0:06:13 hrs
  WARNING: Node J_CNT1_Stub disconnected at 0:06:13 hrs
  WARNING: Node J_CNT1 disconnected at 0:06:13 hrs
  WARNING: 398 additional nodes disconnected at 0:06:13 hrs
  WARNING: System disconnected because of Link J_M1_SNT1_160
   
     0:06:33: Pump BOOSTER_PUMP changed by Tank T1 control
     0:06:33: Balanced after 49 trials
     0:06:33: Tank T1 is filling at 46.23 ft
     0:06:33: Tank M1 is emptying at 48.64 ft
     0:06:33: Pipe J_M1_SNT1_160 changed from temporarily closed to open
     0:06:33: Pipe J_M1_SNT2_Stub_55 changed from temporarily closed to open
     0:06:33: Pump BOOSTER_PUMP changed from temporarily closed to open
   
  WARNING: Maximum trials exceeded at 0:06:33 hrs. System may be unstable.
  WARNING: Negative pressures at 0:06:33 hrs.
  WARNING: FCV V3 open but cannot deliver flow at 0:06:33 hrs.
  WARNING: FCV V8 open but cannot deliver flow at 0:06:33 hrs.
  WARNING: FCV V10 open but cannot deliver flow at 0:06:33 hrs.
  WARNING: FCV V11 open but cannot deliver flow at 0:06:33 hrs.
  WARNING: FCV V12 open but cannot deliver flow at 0:06:33 hrs.
  WARNING: Pump WELL_PUMP open but exceeds maximum flow at 0:06:33 hrs.
   
     0:06:37: Unbalanced after 51 trials (flow change = 0.002706)
     0:06:37: Tank T1 is emptying at 47.14 ft
   
  WARNING: Negative pressures at 0:06:37 hrs.
  WARNING: FCV V3 open but cannot deliver flow at 0:06:37 hrs.
  WARNING: FCV V8 open but cannot deliver flow at 0:06:37 hrs.
  WARNING: FCV V10 open but cannot deliver flow at 0:06:37 hrs.
  WARNING: FCV V11 open but cannot deliver flow at 0:06:37 hrs.
  WARNING: FCV V12 open but cannot deliver flow at 0:06:37 hrs.
  WARNING: Pump WELL_PUMP open but exceeds maximum flow at 0:06:37 hrs.
  WARNING: System unbalanced at 0:06:37 hrs.
   
     0:06:42: Unbalanced after 51 trials (flow change = 0.030831)
     0:06:42: Tank T1 is filling at 46.10 ft
     0:06:42: Tank M1 is filling at 40.00 ft
     0:06:42: Pipe J_T1_M1 changed from open to temporarily closed
     0:06:42: Pipe J_M1_SNT1_160 changed from open to temporarily closed
     0:06:42: Pipe J_M1_SNT2_Stub_55 changed from open to temporarily closed
     0:06:42: Pump BOOSTER_PUMP changed from open to temporarily closed
   
  WARNING: Negative pressures at 0:06:42 hrs.
  WARNING: FCV V3 open but cannot deliver flow at 0:06:42 hrs.
  WARNING: FCV V8 open but cannot deliver flow at 0:06:42 hrs.
  WARNING: FCV V10 open but cannot deliver flow at 0:06:42 hrs.
  WARNING: FCV V11 open but cannot deliver flow at 0:06:42 hrs.
  WARNING: FCV V12 open but cannot deliver flow at 0:06:42 hrs.
  WARNING: Pump WELL_PUMP open but exceeds maximum flow at 0:06:42 hrs.
  WARNING: System unbalanced at 0:06:42 hrs.
  WARNING: Node J_SNT1_160 disconnected at 0:06:42 hrs
  WARNING: Node J_V1_IN_160 disconnected at 0:06:42 hrs
  WARNING: Node J_V1_OUT_160 disconnected at 0:06:42 hrs
  WARNING: Node J_SNT1_360 disconnected at 0:06:42 hrs
  WARNING: Node J_V2_IN_360 disconnected at 0:06:42 hrs
  WARNING: Node J_V2_OUT_360 disconnected at 0:06:42 hrs
  WARNING: Node J_SNT1_445 disconnected at 0:06:42 hrs
  WARNING: Node J_TEE_SNT1_445 disconnected at 0:06:42 hrs
  WARNING: Node J_CNT1_Stub disconnected at 0:06:42 hrs
  WARNING: Node J_CNT1 disconnected at 0:06:42 hrs
  WARNING: 398 additional nodes disconnected at 0:06:42 hrs
  WARNING: System disconnected because of Link J_M1_SNT1_160
   
     0:06:44: Pump BOOSTER_PUMP changed by Tank T1 control
     0:06:44: Balanced after 20 trials
     0:06:44: Tank M1 is emptying at 40.48 ft
     0:06:44: Pipe J_M1_SNT1_160 changed from temporarily closed to open
     0:06:44: Pipe J_M1_SNT2_Stub_55 changed from temporarily closed to open
     0:06:44: Pump BOOSTER_PUMP changed from temporarily closed to open
   
  WARNING: Negative pressures at 0:06:44 hrs.
  WARNING: FCV V3 open but cannot deliver flow at 0:06:44 hrs.
  WARNING: FCV V8 open but cannot deliver flow at 0:06:44 hrs.
  WARNING: FCV V10 open but cannot deliver flow at 0:06:44 hrs.
  WARNING: FCV V11 open but cannot deliver flow at 0:06:44 hrs.
  WARNING: FCV V12 open but cannot deliver flow at 0:06:44 hrs.
  WARNING: Pump WELL_PUMP open but exceeds maximum flow at 0:06:44 hrs.
   
     0:08:00: Unbalanced after 51 trials (flow change = 0.017411)
     0:08:00: Tank T1 is emptying at 51.08 ft
     0:08:00: Tank M1 is filling at 40.00 ft
     0:08:00: Pipe J_T1_M1 changed from temporarily closed to open
     0:08:00: Pipe J_M1_SNT1_160 changed from open to temporarily closed
     0:08:00: Pipe J_M1_SNT2_Stub_55 changed from open to temporarily closed
     0:08:00: Pump BOOSTER_PUMP changed from open to temporarily closed
   
  WARNING: Negative pressures at 0:08:00 hrs.
  WARNING: FCV V3 open but cannot deliver flow at 0:08:00 hrs.
  WARNING: FCV V8 open but cannot deliver flow at 0:08:00 hrs.
  WARNING: FCV V10 open but cannot deliver flow at 0:08:00 hrs.
  WARNING: FCV V11 open but cannot deliver flow at 0:08:00 hrs.
  WARNING: FCV V12 open but cannot deliver flow at 0:08:00 hrs.
  WARNING: Pump WELL_PUMP open but exceeds maximum flow at 0:08:00 hrs.
  WARNING: System unbalanced at 0:08:00 hrs.
  WARNING: Node J_SNT1_160 disconnected at 0:08:00 hrs
  WARNING: Node J_V1_IN_160 disconnected at 0:08:00 hrs
  WARNING: Node J_V1_OUT_160 disconnected at 0:08:00 hrs
  WARNING: Node J_SNT1_360 disconnected at 0:08:00 hrs
  WARNING: Node J_V2_IN_360 disconnected at 0:08:00 hrs
  WARNING: Node J_V2_OUT_360 disconnected at 0:08:00 hrs
  WARNING: Node J_SNT1_445 disconnected at 0:08:00 hrs
  WARNING: Node J_TEE_SNT1_445 disconnected at 0:08:00 hrs
  WARNING: Node J_CNT1_Stub disconnected at 0:08:00 hrs
  WARNING: Node J_CNT1 disconnected at 0:08:00 hrs
  WARNING: 398 additional nodes disconnected at 0:08:00 hrs
  WARNING: System disconnected because of Link J_M1_SNT1_160
   
     0:08:17: Pump BOOSTER_PUMP changed by Tank T1 control
     0:08:17: Unbalanced after 51 trials (flow change = 0.008520)
     0:08:17: Tank T1 is filling at 46.22 ft
     0:08:17: Tank M1 is emptying at 46.87 ft
     0:08:17: Pipe J_M1_SNT1_160 changed from temporarily closed to open
     0:08:17: Pipe J_M1_SNT2_Stub_55 changed from temporarily closed to open
     0:08:17: Pump BOOSTER_PUMP changed from temporarily closed to open
   
  WARNING: Negative pressures at 0:08:17 hrs.
  WARNING: FCV V3 open but cannot deliver flow at 0:08:17 hrs.
  WARNING: FCV V8 open but cannot deliver flow at 0:08:17 hrs.
  WARNING: FCV V10 open but cannot deliver flow at 0:08:17 hrs.
  WARNING: FCV V11 open but cannot deliver flow at 0:08:17 hrs.
  WARNING: FCV V12 open but cannot deliver flow at 0:08:17 hrs.
  WARNING: Pump WELL_PUMP open but exceeds maximum flow at 0:08:17 hrs.
  WARNING: System unbalanced at 0:08:17 hrs.
   
     0:08:20: Unbalanced after 51 trials (flow change = 0.006474)
     0:08:20: Tank T1 is emptying at 46.67 ft
   
  WARNING: Negative pressures at 0:08:20 hrs.
  WARNING: FCV V3 open but cannot deliver flow at 0:08:20 hrs.
  WARNING: FCV V8 open but cannot deliver flow at 0:08:20 hrs.
  WARNING: FCV V10 open but cannot deliver flow at 0:08:20 hrs.
  WARNING: FCV V11 open but cannot deliver flow at 0:08:20 hrs.
  WARNING: FCV V12 open but cannot deliver flow at 0:08:20 hrs.
  WARNING: Pump WELL_PUMP open but exceeds maximum flow at 0:08:20 hrs.
  WARNING: System unbalanced at 0:08:20 hrs.
   
     0:08:22: Unbalanced after 51 trials (flow change = 0.015774)
     0:08:22: Tank M1 is filling at 40.00 ft
     0:08:22: Pipe J_M1_SNT1_160 changed from open to temporarily closed
     0:08:22: Pipe J_M1_SNT2_Stub_55 changed from open to temporarily closed
     0:08:22: Pump BOOSTER_PUMP changed from open to temporarily closed
   
  WARNING: Negative pressures at 0:08:22 hrs.
  WARNING: FCV V3 open but cannot deliver flow at 0:08:22 hrs.
  WARNING: FCV V8 open but cannot deliver flow at 0:08:22 hrs.
  WARNING: FCV V10 open but cannot deliver flow at 0:08:22 hrs.
  WARNING: FCV V11 open but cannot deliver flow at 0:08:22 hrs.
  WARNING: FCV V12 open but cannot deliver flow at 0:08:22 hrs.
  WARNING: Pump WELL_PUMP open but exceeds maximum flow at 0:08:22 hrs.
  WARNING: System unbalanced at 0:08:22 hrs.
  WARNING: Node J_SNT1_160 disconnected at 0:08:22 hrs
  WARNING: Node J_V1_IN_160 disconnected at 0:08:22 hrs
  WARNING: Node J_V1_OUT_160 disconnected at 0:08:22 hrs
  WARNING: Node J_SNT1_360 disconnected at 0:08:22 hrs
  WARNING: Node J_V2_IN_360 disconnected at 0:08:22 hrs
  WARNING: Node J_V2_OUT_360 disconnected at 0:08:22 hrs
  WARNING: Node J_SNT1_445 disconnected at 0:08:22 hrs
  WARNING: Node J_TEE_SNT1_445 disconnected at 0:08:22 hrs
  WARNING: Node J_CNT1_Stub disconnected at 0:08:22 hrs
  WARNING: Node J_CNT1 disconnected at 0:08:22 hrs
  WARNING: 398 additional nodes disconnected at 0:08:22 hrs
  WARNING: System disconnected because of Link J_M1_SNT1_160
   
     0:10:00: Pump BOOSTER_PUMP changed by Tank T1 control
     0:10:00: Unbalanced after 51 trials (flow change = 0.022796)
     0:10:00: Tank T1 is filling at 46.20 ft
     0:10:00: Tank M1 is emptying at 73.96 ft
     0:10:00: Tank J_BP1_SUC is filling at 53.42 ft
     0:10:00: Pipe J_M1_SNT1_160 changed from temporarily closed to open
     0:10:00: Pipe J_M1_SNT2_Stub_55 changed from temporarily closed to open
     0:10:00: Pump BOOSTER_PUMP changed from temporarily closed to open
   
  WARNING: Negative pressures at 0:10:00 hrs.
  WARNING: FCV V3 open but cannot deliver flow at 0:10:00 hrs.
  WARNING: FCV V8 open but cannot deliver flow at 0:10:00 hrs.
  WARNING: FCV V10 open but cannot deliver flow at 0:10:00 hrs.
  WARNING: FCV V11 open but cannot deliver flow at 0:10:00 hrs.
  WARNING: FCV V12 open but cannot deliver flow at 0:10:00 hrs.
  WARNING: Pump WELL_PUMP open but exceeds maximum flow at 0:10:00 hrs.
  WARNING: Pump BOOSTER_PUMP open but exceeds maximum flow at 0:10:00 hrs.
  WARNING: System unbalanced at 0:10:00 hrs.
   
     0:10:13: Unbalanced after 51 trials (flow change = 0.030703)
     0:10:13: Tank T1 is emptying at 54.24 ft
     0:10:13: Tank M1 is filling at 39.00 ft
     0:10:13: Tank J_T1_SUC is filling at 55.05 ft
     0:10:13: Tank J_BP1_SUC is emptying at 57.36 ft
     0:10:13: Pipe J_M1_SNT1_160 changed from open to temporarily closed
     0:10:13: Pipe J_M1_SNT2_Stub_55 changed from open to temporarily closed
     0:10:13: Pump BOOSTER_PUMP changed from open to temporarily closed
   
  WARNING: Negative pressures at 0:10:13 hrs.
  WARNING: FCV V3 open but cannot deliver flow at 0:10:13 hrs.
  WARNING: FCV V8 open but cannot deliver flow at 0:10:13 hrs.
  WARNING: FCV V10 open but cannot deliver flow at 0:10:13 hrs.
  WARNING: FCV V11 open but cannot deliver flow at 0:10:13 hrs.
  WARNING: FCV V12 open but cannot deliver flow at 0:10:13 hrs.
  WARNING: Pump WELL_PUMP open but exceeds maximum flow at 0:10:13 hrs.
  WARNING: System unbalanced at 0:10:13 hrs.
  WARNING: Node J_SNT1_160 disconnected at 0:10:13 hrs
  WARNING: Node J_V1_IN_160 disconnected at 0:10:13 hrs
  WARNING: Node J_V1_OUT_160 disconnected at 0:10:13 hrs
  WARNING: Node J_SNT1_360 disconnected at 0:10:13 hrs
  WARNING: Node J_V2_IN_360 disconnected at 0:10:13 hrs
  WARNING: Node J_V2_OUT_360 disconnected at 0:10:13 hrs
  WARNING: Node J_SNT1_445 disconnected at 0:10:13 hrs
  WARNING: Node J_TEE_SNT1_445 disconnected at 0:10:13 hrs
  WARNING: Node J_CNT1_Stub disconnected at 0:10:13 hrs
  WARNING: Node J_CNT1 disconnected at 0:10:13 hrs
  WARNING: 398 additional nodes disconnected at 0:10:13 hrs
  WARNING: System disconnected because of Link J_M1_SNT1_160
   
     0:10:36: Pump BOOSTER_PUMP changed by Tank T1 control
     0:10:36: Unbalanced after 51 trials (flow change = 0.017524)
     0:10:36: Tank T1 is filling at 46.26 ft
     0:10:36: Tank M1 is emptying at 48.33 ft
     0:10:36: Tank J_T1_SUC is emptying at 57.12 ft
     0:10:36: Tank J_BP1_SUC is filling at 51.08 ft
     0:10:36: Pipe J_M1_SNT1_160 changed from temporarily closed to open
     0:10:36: Pipe J_M1_SNT2_Stub_55 changed from temporarily closed to open
     0:10:36: Pump BOOSTER_PUMP changed from temporarily closed to open
   
  WARNING: Negative pressures at 0:10:36 hrs.
  WARNING: FCV V3 open but cannot deliver flow at 0:10:36 hrs.
  WARNING: FCV V8 open but cannot deliver flow at 0:10:36 hrs.
  WARNING: FCV V10 open but cannot deliver flow at 0:10:36 hrs.
  WARNING: FCV V11 open but cannot deliver flow at 0:10:36 hrs.
  WARNING: FCV V12 open but cannot deliver flow at 0:10:36 hrs.
  WARNING: Pump WELL_PUMP open but exceeds maximum flow at 0:10:36 hrs.
  WARNING: System unbalanced at 0:10:36 hrs.
   
     0:10:40: Unbalanced after 51 trials (flow change = 0.013496)
     0:10:40: Tank T1 is emptying at 47.12 ft
     0:10:40: Tank M1 is filling at 39.56 ft
     0:10:40: Tank J_BP1_SUC is emptying at 51.43 ft
     0:10:40: Pipe J_M1_SNT1_160 changed from open to temporarily closed
     0:10:40: Pipe J_M1_SNT2_Stub_55 changed from open to temporarily closed
     0:10:40: Pump BOOSTER_PUMP changed from open to temporarily closed
   
  WARNING: Negative pressures at 0:10:40 hrs.
  WARNING: FCV V3 open but cannot deliver flow at 0:10:40 hrs.
  WARNING: FCV V8 open but cannot deliver flow at 0:10:40 hrs.
  WARNING: FCV V10 open but cannot deliver flow at 0:10:40 hrs.
  WARNING: FCV V11 open but cannot deliver flow at 0:10:40 hrs.
  WARNING: FCV V12 open but cannot deliver flow at 0:10:40 hrs.
  WARNING: Pump WELL_PUMP open but exceeds maximum flow at 0:10:40 hrs.
  WARNING: System unbalanced at 0:10:40 hrs.
  WARNING: Node J_SNT1_160 disconnected at 0:10:40 hrs
  WARNING: Node J_V1_IN_160 disconnected at 0:10:40 hrs
  WARNING: Node J_V1_OUT_160 disconnected at 0:10:40 hrs
  WARNING: Node J_SNT1_360 disconnected at 0:10:40 hrs
  WARNING: Node J_V2_IN_360 disconnected at 0:10:40 hrs
  WARNING: Node J_V2_OUT_360 disconnected at 0:10:40 hrs
  WARNING: Node J_SNT1_445 disconnected at 0:10:40 hrs
  WARNING: Node J_TEE_SNT1_445 disconnected at 0:10:40 hrs
  WARNING: Node J_CNT1_Stub disconnected at 0:10:40 hrs
  WARNING: Node J_CNT1 disconnected at 0:10:40 hrs
  WARNING: 398 additional nodes disconnected at 0:10:40 hrs
  WARNING: System disconnected because of Link J_M1_SNT1_160
   
     0:10:44: Pump BOOSTER_PUMP changed by Tank T1 control
     0:10:44: Unbalanced after 51 trials (flow change = 0.006994)
     0:10:44: Tank M1 is emptying at 40.77 ft
     0:10:44: Tank J_BP1_SUC is filling at 51.38 ft
     0:10:44: Pipe J_M1_SNT1_160 changed from temporarily closed to open
     0:10:44: Pipe J_M1_SNT2_Stub_55 changed from temporarily closed to open
     0:10:44: Pump BOOSTER_PUMP changed from temporarily closed to open
   
  WARNING: Negative pressures at 0:10:44 hrs.
  WARNING: FCV V3 open but cannot deliver flow at 0:10:44 hrs.
  WARNING: FCV V8 open but cannot deliver flow at 0:10:44 hrs.
  WARNING: FCV V10 open but cannot deliver flow at 0:10:44 hrs.
  WARNING: FCV V11 open but cannot deliver flow at 0:10:44 hrs.
  WARNING: FCV V12 open but cannot deliver flow at 0:10:44 hrs.
  WARNING: Pump WELL_PUMP open but exceeds maximum flow at 0:10:44 hrs.
  WARNING: System unbalanced at 0:10:44 hrs.
   
     0:12:00: Unbalanced after 51 trials (flow change = 0.012945)
     0:12:00: Tank T1 is filling at 46.20 ft
     0:12:00: Tank M1 is filling at 40.00 ft
     0:12:00: Tank J_T1_SUC is filling at 46.34 ft
     0:12:00: Tank J_BP1_SUC is emptying at 51.56 ft
     0:12:00: Pipe J_T1_M1 changed from open to temporarily closed
     0:12:00: Pipe J_M1_SNT1_160 changed from open to temporarily closed
     0:12:00: Pipe J_M1_SNT2_Stub_55 changed from open to temporarily closed
     0:12:00: Pump BOOSTER_PUMP changed from open to temporarily closed
   
  WARNING: Negative pressures at 0:12:00 hrs.
  WARNING: FCV V3 open but cannot deliver flow at 0:12:00 hrs.
  WARNING: FCV V8 open but cannot deliver flow at 0:12:00 hrs.
  WARNING: FCV V10 open but cannot deliver flow at 0:12:00 hrs.
  WARNING: FCV V11 open but cannot deliver flow at 0:12:00 hrs.
  WARNING: FCV V12 open but cannot deliver flow at 0:12:00 hrs.
  WARNING: Pump WELL_PUMP open but exceeds maximum flow at 0:12:00 hrs.
  WARNING: System unbalanced at 0:12:00 hrs.
  WARNING: Node J_SNT1_160 disconnected at 0:12:00 hrs
  WARNING: Node J_V1_IN_160 disconnected at 0:12:00 hrs
  WARNING: Node J_V1_OUT_160 disconnected at 0:12:00 hrs
  WARNING: Node J_SNT1_360 disconnected at 0:12:00 hrs
  WARNING: Node J_V2_IN_360 disconnected at 0:12:00 hrs
  WARNING: Node J_V2_OUT_360 disconnected at 0:12:00 hrs
  WARNING: Node J_SNT1_445 disconnected at 0:12:00 hrs
  WARNING: Node J_TEE_SNT1_445 disconnected at 0:12:00 hrs
  WARNING: Node J_CNT1_Stub disconnected at 0:12:00 hrs
  WARNING: Node J_CNT1 disconnected at 0:12:00 hrs
  WARNING: 398 additional nodes disconnected at 0:12:00 hrs
  WARNING: System disconnected because of Link J_M1_SNT1_160
   
     0:12:41: Pump BOOSTER_PUMP changed by Tank T1 control
     0:12:41: Unbalanced after 51 trials (flow change = 0.004525)
     0:12:41: Tank T1 is emptying at 48.84 ft
     0:12:41: Tank M1 is emptying at 45.65 ft
     0:12:41: Tank J_T1_SUC is emptying at 51.88 ft
     0:12:41: Tank J_BP1_SUC is filling at 40.02 ft
     0:12:41: Pipe J_T1_M1 changed from temporarily closed to open
     0:12:41: Pipe J_M1_SNT1_160 changed from temporarily closed to open
     0:12:41: Pipe J_M1_SNT2_Stub_55 changed from temporarily closed to open
     0:12:41: Pump BOOSTER_PUMP changed from temporarily closed to open
   
  WARNING: Negative pressures at 0:12:41 hrs.
  WARNING: FCV V3 open but cannot deliver flow at 0:12:41 hrs.
  WARNING: FCV V8 open but cannot deliver flow at 0:12:41 hrs.
  WARNING: FCV V10 open but cannot deliver flow at 0:12:41 hrs.
  WARNING: FCV V11 open but cannot deliver flow at 0:12:41 hrs.
  WARNING: FCV V12 open but cannot deliver flow at 0:12:41 hrs.
  WARNING: Pump WELL_PUMP open but exceeds maximum flow at 0:12:41 hrs.
  WARNING: Pump BOOSTER_PUMP open but exceeds maximum flow at 0:12:41 hrs.
  WARNING: System unbalanced at 0:12:41 hrs.
   
     0:12:44: Unbalanced after 51 trials (flow change = 0.025993)
     0:12:44: Tank M1 is filling at 39.12 ft
     0:12:44: Pipe J_M1_SNT1_160 changed from open to temporarily closed
     0:12:44: Pipe J_M1_SNT2_Stub_55 changed from open to temporarily closed
     0:12:44: Pump BOOSTER_PUMP changed from open to temporarily closed
   
  WARNING: Negative pressures at 0:12:44 hrs.
  WARNING: FCV V3 open but cannot deliver flow at 0:12:44 hrs.
  WARNING: FCV V8 open but cannot deliver flow at 0:12:44 hrs.
  WARNING: FCV V10 open but cannot deliver flow at 0:12:44 hrs.
  WARNING: FCV V11 open but cannot deliver flow at 0:12:44 hrs.
  WARNING: FCV V12 open but cannot deliver flow at 0:12:44 hrs.
  WARNING: Pump WELL_PUMP open but exceeds maximum flow at 0:12:44 hrs.
  WARNING: System unbalanced at 0:12:44 hrs.
  WARNING: Node J_SNT1_160 disconnected at 0:12:44 hrs
  WARNING: Node J_V1_IN_160 disconnected at 0:12:44 hrs
  WARNING: Node J_V1_OUT_160 disconnected at 0:12:44 hrs
  WARNING: Node J_SNT1_360 disconnected at 0:12:44 hrs
  WARNING: Node J_V2_IN_360 disconnected at 0:12:44 hrs
  WARNING: Node J_V2_OUT_360 disconnected at 0:12:44 hrs
  WARNING: Node J_SNT1_445 disconnected at 0:12:44 hrs
  WARNING: Node J_TEE_SNT1_445 disconnected at 0:12:44 hrs
  WARNING: Node J_CNT1_Stub disconnected at 0:12:44 hrs
  WARNING: Node J_CNT1 disconnected at 0:12:44 hrs
  WARNING: 398 additional nodes disconnected at 0:12:44 hrs
  WARNING: System disconnected because of Link J_M1_SNT1_160
   
     0:12:53: Pump BOOSTER_PUMP changed by Tank T1 control
     0:12:53: Unbalanced after 51 trials (flow change = 0.027486)
     0:12:53: Tank T1 is filling at 46.15 ft
     0:12:53: Tank M1 is emptying at 41.22 ft
     0:12:53: Pipe J_T1_M1 changed from open to temporarily closed
     0:12:53: Pipe J_M1_SNT1_160 changed from temporarily closed to open
     0:12:53: Pipe J_M1_SNT2_Stub_55 changed from temporarily closed to open
     0:12:53: Pump BOOSTER_PUMP changed from temporarily closed to open
   
  WARNING: Negative pressures at 0:12:53 hrs.
  WARNING: FCV V3 open but cannot deliver flow at 0:12:53 hrs.
  WARNING: FCV V8 open but cannot deliver flow at 0:12:53 hrs.
  WARNING: FCV V10 open but cannot deliver flow at 0:12:53 hrs.
  WARNING: FCV V11 open but cannot deliver flow at 0:12:53 hrs.
  WARNING: FCV V12 open but cannot deliver flow at 0:12:53 hrs.
  WARNING: Pump WELL_PUMP open but exceeds maximum flow at 0:12:53 hrs.
  WARNING: System unbalanced at 0:12:53 hrs.
   
     0:12:54: Unbalanced after 51 trials (flow change = 0.016566)
     0:12:54: Tank M1 is filling at 39.09 ft
     0:12:54: Pipe J_M1_SNT1_160 changed from open to temporarily closed
     0:12:54: Pipe J_M1_SNT2_Stub_55 changed from open to temporarily closed
     0:12:54: Pump BOOSTER_PUMP changed from open to temporarily closed
   
  WARNING: Negative pressures at 0:12:54 hrs.
  WARNING: FCV V3 open but cannot deliver flow at 0:12:54 hrs.
  WARNING: FCV V8 open but cannot deliver flow at 0:12:54 hrs.
  WARNING: FCV V10 open but cannot deliver flow at 0:12:54 hrs.
  WARNING: FCV V11 open but cannot deliver flow at 0:12:54 hrs.
  WARNING: FCV V12 open but cannot deliver flow at 0:12:54 hrs.
  WARNING: Pump WELL_PUMP open but exceeds maximum flow at 0:12:54 hrs.
  WARNING: System unbalanced at 0:12:54 hrs.
  WARNING: Node J_SNT1_160 disconnected at 0:12:54 hrs
  WARNING: Node J_V1_IN_160 disconnected at 0:12:54 hrs
  WARNING: Node J_V1_OUT_160 disconnected at 0:12:54 hrs
  WARNING: Node J_SNT1_360 disconnected at 0:12:54 hrs
  WARNING: Node J_V2_IN_360 disconnected at 0:12:54 hrs
  WARNING: Node J_V2_OUT_360 disconnected at 0:12:54 hrs
  WARNING: Node J_SNT1_445 disconnected at 0:12:54 hrs
  WARNING: Node J_TEE_SNT1_445 disconnected at 0:12:54 hrs
  WARNING: Node J_CNT1_Stub disconnected at 0:12:54 hrs
  WARNING: Node J_CNT1 disconnected at 0:12:54 hrs
  WARNING: 398 additional nodes disconnected at 0:12:54 hrs
  WARNING: System disconnected because of Link J_M1_SNT1_160
   
     0:13:53: Pump BOOSTER_PUMP changed by Tank T1 control
     0:13:53: Balanced after 41 trials
     0:13:53: Tank T1 is emptying at 49.99 ft
     0:13:53: Tank M1 is emptying at 43.22 ft
     0:13:53: Tank J_T1_SUC is filling at 40.08 ft
     0:13:53: Tank J_BP1_SUC is emptying at 46.95 ft
     0:13:53: Pipe J_T1_M1 changed from temporarily closed to open
     0:13:53: Pipe J_M1_SNT1_160 changed from temporarily closed to open
     0:13:53: Pipe J_M1_SNT2_Stub_55 changed from temporarily closed to open
     0:13:53: Pump BOOSTER_PUMP changed from temporarily closed to open
   
  WARNING: Maximum trials exceeded at 0:13:53 hrs. System may be unstable.
  WARNING: Negative pressures at 0:13:53 hrs.
  WARNING: FCV V3 open but cannot deliver flow at 0:13:53 hrs.
  WARNING: FCV V8 open but cannot deliver flow at 0:13:53 hrs.
  WARNING: FCV V10 open but cannot deliver flow at 0:13:53 hrs.
  WARNING: FCV V11 open but cannot deliver flow at 0:13:53 hrs.
  WARNING: FCV V12 open but cannot deliver flow at 0:13:53 hrs.
  WARNING: Pump WELL_PUMP open but exceeds maximum flow at 0:13:53 hrs.
   
     0:13:55: Unbalanced after 51 trials (flow change = 0.024263)
     0:13:55: Tank M1 is filling at 39.35 ft
     0:13:55: Pipe J_M1_SNT1_160 changed from open to temporarily closed
     0:13:55: Pipe J_M1_SNT2_Stub_55 changed from open to temporarily closed
     0:13:55: Pump BOOSTER_PUMP changed from open to temporarily closed
   
  WARNING: Negative pressures at 0:13:55 hrs.
  WARNING: FCV V3 open but cannot deliver flow at 0:13:55 hrs.
  WARNING: FCV V8 open but cannot deliver flow at 0:13:55 hrs.
  WARNING: FCV V10 open but cannot deliver flow at 0:13:55 hrs.
  WARNING: FCV V11 open but cannot deliver flow at 0:13:55 hrs.
  WARNING: FCV V12 open but cannot deliver flow at 0:13:55 hrs.
  WARNING: Pump WELL_PUMP open but exceeds maximum flow at 0:13:55 hrs.
  WARNING: System unbalanced at 0:13:55 hrs.
  WARNING: Node J_SNT1_160 disconnected at 0:13:55 hrs
  WARNING: Node J_V1_IN_160 disconnected at 0:13:55 hrs
  WARNING: Node J_V1_OUT_160 disconnected at 0:13:55 hrs
  WARNING: Node J_SNT1_360 disconnected at 0:13:55 hrs
  WARNING: Node J_V2_IN_360 disconnected at 0:13:55 hrs
  WARNING: Node J_V2_OUT_360 disconnected at 0:13:55 hrs
  WARNING: Node J_SNT1_445 disconnected at 0:13:55 hrs
  WARNING: Node J_TEE_SNT1_445 disconnected at 0:13:55 hrs
  WARNING: Node J_CNT1_Stub disconnected at 0:13:55 hrs
  WARNING: Node J_CNT1 disconnected at 0:13:55 hrs
  WARNING: 398 additional nodes disconnected at 0:13:55 hrs
  WARNING: System disconnected because of Link J_M1_SNT1_160
   
     0:14:00: Pump BOOSTER_PUMP changed by Tank T1 control
     0:14:00: Unbalanced after 51 trials (flow change = 0.009231)
     0:14:00: Tank M1 is emptying at 40.84 ft
     0:14:00: Pipe J_M1_SNT1_160 changed from temporarily closed to open
     0:14:00: Pipe J_M1_SNT2_Stub_55 changed from temporarily closed to open
     0:14:00: Pump BOOSTER_PUMP changed from temporarily closed to open
   
  WARNING: Negative pressures at 0:14:00 hrs.
  WARNING: FCV V3 open but cannot deliver flow at 0:14:00 hrs.
  WARNING: FCV V8 open but cannot deliver flow at 0:14:00 hrs.
  WARNING: FCV V10 open but cannot deliver flow at 0:14:00 hrs.
  WARNING: FCV V11 open but cannot deliver flow at 0:14:00 hrs.
  WARNING: FCV V12 open but cannot deliver flow at 0:14:00 hrs.
  WARNING: Pump WELL_PUMP open but exceeds maximum flow at 0:14:00 hrs.
  WARNING: System unbalanced at 0:14:00 hrs.
   
     0:14:09: Unbalanced after 51 trials (flow change = 0.038554)
     0:14:09: Tank M1 is filling at 40.00 ft
     0:14:09: Pipe J_M1_SNT1_160 changed from open to temporarily closed
     0:14:09: Pipe J_M1_SNT2_Stub_55 changed from open to temporarily closed
     0:14:09: Pump BOOSTER_PUMP changed from open to temporarily closed
   
  WARNING: Negative pressures at 0:14:09 hrs.
  WARNING: FCV V3 open but cannot deliver flow at 0:14:09 hrs.
  WARNING: FCV V8 open but cannot deliver flow at 0:14:09 hrs.
  WARNING: FCV V10 open but cannot deliver flow at 0:14:09 hrs.
  WARNING: FCV V11 open but cannot deliver flow at 0:14:09 hrs.
  WARNING: FCV V12 open but cannot deliver flow at 0:14:09 hrs.
  WARNING: Pump WELL_PUMP open but exceeds maximum flow at 0:14:09 hrs.
  WARNING: System unbalanced at 0:14:09 hrs.
  WARNING: Node J_SNT1_160 disconnected at 0:14:09 hrs
  WARNING: Node J_V1_IN_160 disconnected at 0:14:09 hrs
  WARNING: Node J_V1_OUT_160 disconnected at 0:14:09 hrs
  WARNING: Node J_SNT1_360 disconnected at 0:14:09 hrs
  WARNING: Node J_V2_IN_360 disconnected at 0:14:09 hrs
  WARNING: Node J_V2_OUT_360 disconnected at 0:14:09 hrs
  WARNING: Node J_SNT1_445 disconnected at 0:14:09 hrs
  WARNING: Node J_TEE_SNT1_445 disconnected at 0:14:09 hrs
  WARNING: Node J_CNT1_Stub disconnected at 0:14:09 hrs
  WARNING: Node J_CNT1 disconnected at 0:14:09 hrs
  WARNING: 398 additional nodes disconnected at 0:14:09 hrs
  WARNING: System disconnected because of Link J_M1_SNT1_160
   
     0:14:32: Pump BOOSTER_PUMP changed by Tank T1 control
     0:14:32: Balanced after 50 trials
     0:14:32: Tank T1 is filling at 46.20 ft
     0:14:32: Tank M1 is emptying at 45.07 ft
     0:14:32: Tank J_T1_SUC is emptying at 43.71 ft
     0:14:32: Tank J_BP1_SUC is filling at 40.04 ft
     0:14:32: Pipe J_T1_M1 changed from open to temporarily closed
     0:14:32: Pipe J_M1_SNT1_160 changed from temporarily closed to open
     0:14:32: Pipe J_M1_SNT2_Stub_55 changed from temporarily closed to open
     0:14:32: Pump BOOSTER_PUMP changed from temporarily closed to open
   
  WARNING: Maximum trials exceeded at 0:14:32 hrs. System may be unstable.
  WARNING: Negative pressures at 0:14:32 hrs.
  WARNING: FCV V3 open but cannot deliver flow at 0:14:32 hrs.
  WARNING: FCV V8 open but cannot deliver flow at 0:14:32 hrs.
  WARNING: FCV V10 open but cannot deliver flow at 0:14:32 hrs.
  WARNING: FCV V11 open but cannot deliver flow at 0:14:32 hrs.
  WARNING: FCV V12 open but cannot deliver flow at 0:14:32 hrs.
  WARNING: Pump WELL_PUMP open but exceeds maximum flow at 0:14:32 hrs.
  WARNING: Pump BOOSTER_PUMP open but exceeds maximum flow at 0:14:32 hrs.
   
     0:14:34: Unbalanced after 51 trials (flow change = 0.016436)
     0:14:34: Tank T1 is emptying at 46.33 ft
     0:14:34: Pipe J_T1_M1 changed from temporarily closed to open
   
  WARNING: Negative pressures at 0:14:34 hrs.
  WARNING: FCV V3 open but cannot deliver flow at 0:14:34 hrs.
  WARNING: FCV V8 open but cannot deliver flow at 0:14:34 hrs.
  WARNING: FCV V10 open but cannot deliver flow at 0:14:34 hrs.
  WARNING: FCV V11 open but cannot deliver flow at 0:14:34 hrs.
  WARNING: FCV V12 open but cannot deliver flow at 0:14:34 hrs.
  WARNING: Pump WELL_PUMP open but exceeds maximum flow at 0:14:34 hrs.
  WARNING: System unbalanced at 0:14:34 hrs.
   
     0:14:35: Unbalanced after 51 trials (flow change = 0.018803)
     0:14:35: Tank T1 is filling at 46.14 ft
     0:14:35: Tank M1 is filling at 38.51 ft
     0:14:35: Pipe J_T1_M1 changed from open to temporarily closed
     0:14:35: Pipe J_M1_SNT1_160 changed from open to temporarily closed
     0:14:35: Pipe J_M1_SNT2_Stub_55 changed from open to temporarily closed
     0:14:35: Pump BOOSTER_PUMP changed from open to temporarily closed
     0:14:35: FCV V8 changed from open but cannot deliver flow to active
   
  WARNING: Negative pressures at 0:14:35 hrs.
  WARNING: FCV V3 open but cannot deliver flow at 0:14:35 hrs.
  WARNING: FCV V10 open but cannot deliver flow at 0:14:35 hrs.
  WARNING: FCV V11 open but cannot deliver flow at 0:14:35 hrs.
  WARNING: FCV V12 open but cannot deliver flow at 0:14:35 hrs.
  WARNING: Pump WELL_PUMP open but exceeds maximum flow at 0:14:35 hrs.
  WARNING: System unbalanced at 0:14:35 hrs.
  WARNING: Node J_SNT1_160 disconnected at 0:14:35 hrs
  WARNING: Node J_V1_IN_160 disconnected at 0:14:35 hrs
  WARNING: Node J_V1_OUT_160 disconnected at 0:14:35 hrs
  WARNING: Node J_SNT1_360 disconnected at 0:14:35 hrs
  WARNING: Node J_V2_IN_360 disconnected at 0:14:35 hrs
  WARNING: Node J_V2_OUT_360 disconnected at 0:14:35 hrs
  WARNING: Node J_SNT1_445 disconnected at 0:14:35 hrs
  WARNING: Node J_TEE_SNT1_445 disconnected at 0:14:35 hrs
  WARNING: Node J_CNT1_Stub disconnected at 0:14:35 hrs
  WARNING: Node J_CNT1 disconnected at 0:14:35 hrs
  WARNING: 398 additional nodes disconnected at 0:14:35 hrs
  WARNING: System disconnected because of Link J_M1_SNT1_160
   
     0:14:36: Pump BOOSTER_PUMP changed by Tank T1 control
     0:14:36: Unbalanced after 51 trials (flow change = 0.012452)
     0:14:36: FCV V8 changed from active to open but cannot deliver flow
   
  WARNING: Negative pressures at 0:14:36 hrs.
  WARNING: FCV V3 open but cannot deliver flow at 0:14:36 hrs.
  WARNING: FCV V8 open but cannot deliver flow at 0:14:36 hrs.
  WARNING: FCV V10 open but cannot deliver flow at 0:14:36 hrs.
  WARNING: FCV V11 open but cannot deliver flow at 0:14:36 hrs.
  WARNING: FCV V12 open but cannot deliver flow at 0:14:36 hrs.
  WARNING: Pump WELL_PUMP open but exceeds maximum flow at 0:14:36 hrs.
  WARNING: System unbalanced at 0:14:36 hrs.
  WARNING: Node J_SNT1_160 disconnected at 0:14:36 hrs
  WARNING: Node J_V1_IN_160 disconnected at 0:14:36 hrs
  WARNING: Node J_V1_OUT_160 disconnected at 0:14:36 hrs
  WARNING: Node J_SNT1_360 disconnected at 0:14:36 hrs
  WARNING: Node J_V2_IN_360 disconnected at 0:14:36 hrs
  WARNING: Node J_V2_OUT_360 disconnected at 0:14:36 hrs
  WARNING: Node J_SNT1_445 disconnected at 0:14:36 hrs
  WARNING: Node J_TEE_SNT1_445 disconnected at 0:14:36 hrs
  WARNING: Node J_CNT1_Stub disconnected at 0:14:36 hrs
  WARNING: Node J_CNT1 disconnected at 0:14:36 hrs
  WARNING: 398 additional nodes disconnected at 0:14:36 hrs
  WARNING: System disconnected because of Link J_M1_SNT1_160
   
     0:15:10: Pump BOOSTER_PUMP changed by Tank T1 control
     0:15:10: Balanced after 20 trials
     0:15:10: Tank T1 is emptying at 48.39 ft
     0:15:10: Tank M1 is emptying at 40.98 ft
     0:15:10: Tank J_T1_SUC is filling at 40.01 ft
     0:15:10: Tank J_BP1_SUC is emptying at 42.64 ft
     0:15:10: Pipe J_T1_M1 changed from temporarily closed to open
     0:15:10: Pipe J_M1_SNT1_160 changed from temporarily closed to open
     0:15:10: Pipe J_M1_SNT2_Stub_55 changed from temporarily closed to open
     0:15:10: Pump BOOSTER_PUMP changed from temporarily closed to open
   
  WARNING: Negative pressures at 0:15:10 hrs.
  WARNING: FCV V3 open but cannot deliver flow at 0:15:10 hrs.
  WARNING: FCV V8 open but cannot deliver flow at 0:15:10 hrs.
  WARNING: FCV V10 open but cannot deliver flow at 0:15:10 hrs.
  WARNING: FCV V11 open but cannot deliver flow at 0:15:10 hrs.
  WARNING: FCV V12 open but cannot deliver flow at 0:15:10 hrs.
  WARNING: Pump WELL_PUMP open but exceeds maximum flow at 0:15:10 hrs.
   
     0:15:11: Unbalanced after 51 trials (flow change = 0.031910)
     0:15:11: Tank M1 is filling at 39.03 ft
     0:15:11: Pipe J_M1_SNT1_160 changed from open to temporarily closed
     0:15:11: Pipe J_M1_SNT2_Stub_55 changed from open to temporarily closed
     0:15:11: Pump BOOSTER_PUMP changed from open to temporarily closed
   
  WARNING: Negative pressures at 0:15:11 hrs.
  WARNING: FCV V3 open but cannot deliver flow at 0:15:11 hrs.
  WARNING: FCV V8 open but cannot deliver flow at 0:15:11 hrs.
  WARNING: FCV V10 open but cannot deliver flow at 0:15:11 hrs.
  WARNING: FCV V11 open but cannot deliver flow at 0:15:11 hrs.
  WARNING: FCV V12 open but cannot deliver flow at 0:15:11 hrs.
  WARNING: Pump WELL_PUMP open but exceeds maximum flow at 0:15:11 hrs.
  WARNING: System unbalanced at 0:15:11 hrs.
  WARNING: Node J_SNT1_160 disconnected at 0:15:11 hrs
  WARNING: Node J_V1_IN_160 disconnected at 0:15:11 hrs
  WARNING: Node J_V1_OUT_160 disconnected at 0:15:11 hrs
  WARNING: Node J_SNT1_360 disconnected at 0:15:11 hrs
  WARNING: Node J_V2_IN_360 disconnected at 0:15:11 hrs
  WARNING: Node J_V2_OUT_360 disconnected at 0:15:11 hrs
  WARNING: Node J_SNT1_445 disconnected at 0:15:11 hrs
  WARNING: Node J_TEE_SNT1_445 disconnected at 0:15:11 hrs
  WARNING: Node J_CNT1_Stub disconnected at 0:15:11 hrs
  WARNING: Node J_CNT1 disconnected at 0:15:11 hrs
  WARNING: 398 additional nodes disconnected at 0:15:11 hrs
  WARNING: System disconnected because of Link J_M1_SNT1_160
   
     0:15:19: Pump BOOSTER_PUMP changed by Tank T1 control
     0:15:19: Unbalanced after 51 trials (flow change = 0.013034)
     0:15:19: Tank T1 is filling at 46.13 ft
     0:15:19: Tank M1 is emptying at 41.04 ft
     0:15:19: Pipe J_T1_M1 changed from open to temporarily closed
     0:15:19: Pipe J_M1_SNT1_160 changed from temporarily closed to open
     0:15:19: Pipe J_M1_SNT2_Stub_55 changed from temporarily closed to open
     0:15:19: Pump BOOSTER_PUMP changed from temporarily closed to open
   
  WARNING: Negative pressures at 0:15:19 hrs.
  WARNING: FCV V3 open but cannot deliver flow at 0:15:19 hrs.
  WARNING: FCV V8 open but cannot deliver flow at 0:15:19 hrs.
  WARNING: FCV V10 open but cannot deliver flow at 0:15:19 hrs.
  WARNING: FCV V11 open but cannot deliver flow at 0:15:19 hrs.
  WARNING: FCV V12 open but cannot deliver flow at 0:15:19 hrs.
  WARNING: Pump WELL_PUMP open but exceeds maximum flow at 0:15:19 hrs.
  WARNING: System unbalanced at 0:15:19 hrs.
   
     0:16:00: Unbalanced after 51 trials (flow change = 0.037382)
     0:16:00: Tank T1 is emptying at 48.77 ft
     0:16:00: Tank M1 is filling at 40.00 ft
     0:16:00: Tank J_T1_SUC is emptying at 42.11 ft
     0:16:00: Tank J_BP1_SUC is filling at 40.11 ft
     0:16:00: Pipe J_T1_M1 changed from temporarily closed to open
     0:16:00: Pipe J_M1_SNT1_160 changed from open to temporarily closed
     0:16:00: Pipe J_M1_SNT2_Stub_55 changed from open to temporarily closed
     0:16:00: Pump BOOSTER_PUMP changed from open to temporarily closed
   
  WARNING: Negative pressures at 0:16:00 hrs.
  WARNING: FCV V3 open but cannot deliver flow at 0:16:00 hrs.
  WARNING: FCV V8 open but cannot deliver flow at 0:16:00 hrs.
  WARNING: FCV V10 open but cannot deliver flow at 0:16:00 hrs.
  WARNING: FCV V11 open but cannot deliver flow at 0:16:00 hrs.
  WARNING: FCV V12 open but cannot deliver flow at 0:16:00 hrs.
  WARNING: Pump WELL_PUMP open but exceeds maximum flow at 0:16:00 hrs.
  WARNING: System unbalanced at 0:16:00 hrs.
  WARNING: Node J_SNT1_160 disconnected at 0:16:00 hrs
  WARNING: Node J_V1_IN_160 disconnected at 0:16:00 hrs
  WARNING: Node J_V1_OUT_160 disconnected at 0:16:00 hrs
  WARNING: Node J_SNT1_360 disconnected at 0:16:00 hrs
  WARNING: Node J_V2_IN_360 disconnected at 0:16:00 hrs
  WARNING: Node J_V2_OUT_360 disconnected at 0:16:00 hrs
  WARNING: Node J_SNT1_445 disconnected at 0:16:00 hrs
  WARNING: Node J_TEE_SNT1_445 disconnected at 0:16:00 hrs
  WARNING: Node J_CNT1_Stub disconnected at 0:16:00 hrs
  WARNING: Node J_CNT1 disconnected at 0:16:00 hrs
  WARNING: 398 additional nodes disconnected at 0:16:00 hrs
  WARNING: System disconnected because of Link J_M1_SNT1_160
   
     0:16:10: Pump BOOSTER_PUMP changed by Tank T1 control
     0:16:10: Unbalanced after 51 trials (flow change = 0.005976)
     0:16:10: Tank M1 is emptying at 41.84 ft
     0:16:10: Pipe J_M1_SNT1_160 changed from temporarily closed to open
     0:16:10: Pipe J_M1_SNT2_Stub_55 changed from temporarily closed to open
     0:16:10: Pump BOOSTER_PUMP changed from temporarily closed to open
   
  WARNING: Negative pressures at 0:16:10 hrs.
  WARNING: FCV V3 open but cannot deliver flow at 0:16:10 hrs.
  WARNING: FCV V8 open but cannot deliver flow at 0:16:10 hrs.
  WARNING: FCV V10 open but cannot deliver flow at 0:16:10 hrs.
  WARNING: FCV V11 open but cannot deliver flow at 0:16:10 hrs.
  WARNING: FCV V12 open but cannot deliver flow at 0:16:10 hrs.
  WARNING: Pump WELL_PUMP open but exceeds maximum flow at 0:16:10 hrs.
  WARNING: Pump BOOSTER_PUMP open but exceeds maximum flow at 0:16:10 hrs.
  WARNING: System unbalanced at 0:16:10 hrs.
   
     0:16:11: Unbalanced after 51 trials (flow change = 0.023377)
     0:16:11: Tank T1 is filling at 46.14 ft
     0:16:11: Tank M1 is filling at 39.74 ft
     0:16:11: Tank J_BP1_SUC is emptying at 40.87 ft
     0:16:11: Pipe J_T1_M1 changed from open to temporarily closed
     0:16:11: Pipe J_M1_SNT1_160 changed from open to temporarily closed
     0:16:11: Pipe J_M1_SNT2_Stub_55 changed from open to temporarily closed
     0:16:11: Pump BOOSTER_PUMP changed from open to temporarily closed
   
  WARNING: Negative pressures at 0:16:11 hrs.
  WARNING: FCV V3 open but cannot deliver flow at 0:16:11 hrs.
  WARNING: FCV V8 open but cannot deliver flow at 0:16:11 hrs.
  WARNING: FCV V10 open but cannot deliver flow at 0:16:11 hrs.
  WARNING: FCV V11 open but cannot deliver flow at 0:16:11 hrs.
  WARNING: FCV V12 open but cannot deliver flow at 0:16:11 hrs.
  WARNING: Pump WELL_PUMP open but exceeds maximum flow at 0:16:11 hrs.
  WARNING: System unbalanced at 0:16:11 hrs.
  WARNING: Node J_SNT1_160 disconnected at 0:16:11 hrs
  WARNING: Node J_V1_IN_160 disconnected at 0:16:11 hrs
  WARNING: Node J_V1_OUT_160 disconnected at 0:16:11 hrs
  WARNING: Node J_SNT1_360 disconnected at 0:16:11 hrs
  WARNING: Node J_V2_IN_360 disconnected at 0:16:11 hrs
  WARNING: Node J_V2_OUT_360 disconnected at 0:16:11 hrs
  WARNING: Node J_SNT1_445 disconnected at 0:16:11 hrs
  WARNING: Node J_TEE_SNT1_445 disconnected at 0:16:11 hrs
  WARNING: Node J_CNT1_Stub disconnected at 0:16:11 hrs
  WARNING: Node J_CNT1 disconnected at 0:16:11 hrs
  WARNING: 398 additional nodes disconnected at 0:16:11 hrs
  WARNING: System disconnected because of Link J_M1_SNT1_160
   
     0:16:12: Pump BOOSTER_PUMP changed by Tank T1 control
     0:16:12: Unbalanced after 51 trials (flow change = 0.017312)
   
  WARNING: Negative pressures at 0:16:12 hrs.
  WARNING: FCV V3 open but cannot deliver flow at 0:16:12 hrs.
  WARNING: FCV V8 open but cannot deliver flow at 0:16:12 hrs.
  WARNING: FCV V10 open but cannot deliver flow at 0:16:12 hrs.
  WARNING: FCV V11 open but cannot deliver flow at 0:16:12 hrs.
  WARNING: FCV V12 open but cannot deliver flow at 0:16:12 hrs.
  WARNING: Pump WELL_PUMP open but exceeds maximum flow at 0:16:12 hrs.
  WARNING: System unbalanced at 0:16:12 hrs.
  WARNING: Node J_SNT1_160 disconnected at 0:16:12 hrs
  WARNING: Node J_V1_IN_160 disconnected at 0:16:12 hrs
  WARNING: Node J_V1_OUT_160 disconnected at 0:16:12 hrs
  WARNING: Node J_SNT1_360 disconnected at 0:16:12 hrs
  WARNING: Node J_V2_IN_360 disconnected at 0:16:12 hrs
  WARNING: Node J_V2_OUT_360 disconnected at 0:16:12 hrs
  WARNING: Node J_SNT1_445 disconnected at 0:16:12 hrs
  WARNING: Node J_TEE_SNT1_445 disconnected at 0:16:12 hrs
  WARNING: Node J_CNT1_Stub disconnected at 0:16:12 hrs
  WARNING: Node J_CNT1 disconnected at 0:16:12 hrs
  WARNING: 398 additional nodes disconnected at 0:16:12 hrs
  WARNING: System disconnected because of Link J_M1_SNT1_160
   
     0:16:47: Pump BOOSTER_PUMP changed by Tank T1 control
     0:16:47: Unbalanced after 51 trials (flow change = 0.006410)
     0:16:47: Tank T1 is emptying at 48.45 ft
     0:16:47: Tank M1 is emptying at 41.19 ft
     0:16:47: Tank J_T1_SUC is filling at 39.99 ft
     0:16:47: Pipe J_T1_M1 changed from temporarily closed to open
     0:16:47: Pipe J_M1_SNT1_160 changed from temporarily closed to open
     0:16:47: Pipe J_M1_SNT2_Stub_55 changed from temporarily closed to open
     0:16:47: Pump BOOSTER_PUMP changed from temporarily closed to open
   
  WARNING: Negative pressures at 0:16:47 hrs.
  WARNING: FCV V3 open but cannot deliver flow at 0:16:47 hrs.
  WARNING: FCV V8 open but cannot deliver flow at 0:16:47 hrs.
  WARNING: FCV V10 open but cannot deliver flow at 0:16:47 hrs.
  WARNING: FCV V11 open but cannot deliver flow at 0:16:47 hrs.
  WARNING: FCV V12 open but cannot deliver flow at 0:16:47 hrs.
  WARNING: Pump WELL_PUMP open but exceeds maximum flow at 0:16:47 hrs.
  WARNING: Pump BOOSTER_PUMP open but exceeds maximum flow at 0:16:47 hrs.
  WARNING: System unbalanced at 0:16:47 hrs.
   
     0:16:48: Unbalanced after 51 trials (flow change = 0.018794)
     0:16:48: Tank M1 is filling at 39.15 ft
     0:16:48: Pipe J_M1_SNT1_160 changed from open to temporarily closed
     0:16:48: Pipe J_M1_SNT2_Stub_55 changed from open to temporarily closed
     0:16:48: Pump BOOSTER_PUMP changed from open to temporarily closed
   
  WARNING: Negative pressures at 0:16:48 hrs.
  WARNING: FCV V3 open but cannot deliver flow at 0:16:48 hrs.
  WARNING: FCV V8 open but cannot deliver flow at 0:16:48 hrs.
  WARNING: FCV V10 open but cannot deliver flow at 0:16:48 hrs.
  WARNING: FCV V11 open but cannot deliver flow at 0:16:48 hrs.
  WARNING: FCV V12 open but cannot deliver flow at 0:16:48 hrs.
  WARNING: Pump WELL_PUMP open but exceeds maximum flow at 0:16:48 hrs.
  WARNING: System unbalanced at 0:16:48 hrs.
  WARNING: Node J_SNT1_160 disconnected at 0:16:48 hrs
  WARNING: Node J_V1_IN_160 disconnected at 0:16:48 hrs
  WARNING: Node J_V1_OUT_160 disconnected at 0:16:48 hrs
  WARNING: Node J_SNT1_360 disconnected at 0:16:48 hrs
  WARNING: Node J_V2_IN_360 disconnected at 0:16:48 hrs
  WARNING: Node J_V2_OUT_360 disconnected at 0:16:48 hrs
  WARNING: Node J_SNT1_445 disconnected at 0:16:48 hrs
  WARNING: Node J_TEE_SNT1_445 disconnected at 0:16:48 hrs
  WARNING: Node J_CNT1_Stub disconnected at 0:16:48 hrs
  WARNING: Node J_CNT1 disconnected at 0:16:48 hrs
  WARNING: 398 additional nodes disconnected at 0:16:48 hrs
  WARNING: System disconnected because of Link J_M1_SNT1_160
   
     0:16:54: Pump BOOSTER_PUMP changed by Tank T1 control
     0:16:54: Unbalanced after 51 trials (flow change = 0.012284)
     0:16:54: Tank M1 is emptying at 40.49 ft
     0:16:54: Tank J_T1_SUC is emptying at 40.27 ft
     0:16:54: Tank J_BP1_SUC is filling at 39.98 ft
     0:16:54: Pipe J_M1_SNT1_160 changed from temporarily closed to open
     0:16:54: Pipe J_M1_SNT2_Stub_55 changed from temporarily closed to open
     0:16:54: Pump BOOSTER_PUMP changed from temporarily closed to open
   
  WARNING: Negative pressures at 0:16:54 hrs.
  WARNING: FCV V3 open but cannot deliver flow at 0:16:54 hrs.
  WARNING: FCV V8 open but cannot deliver flow at 0:16:54 hrs.
  WARNING: FCV V10 open but cannot deliver flow at 0:16:54 hrs.
  WARNING: FCV V11 open but cannot deliver flow at 0:16:54 hrs.
  WARNING: FCV V12 open but cannot deliver flow at 0:16:54 hrs.
  WARNING: Pump WELL_PUMP open but exceeds maximum flow at 0:16:54 hrs.
  WARNING: Pump BOOSTER_PUMP open but exceeds maximum flow at 0:16:54 hrs.
  WARNING: System unbalanced at 0:16:54 hrs.
   
     0:16:57: Unbalanced after 51 trials (flow change = 0.018739)
     0:16:57: Tank T1 is filling at 46.12 ft
     0:16:57: Tank M1 is filling at 40.00 ft
     0:16:57: Tank J_T1_SUC is filling at 40.17 ft
     0:16:57: Tank J_BP1_SUC is emptying at 40.19 ft
     0:16:57: Pipe J_T1_M1 changed from open to temporarily closed
     0:16:57: Pipe J_M1_SNT1_160 changed from open to temporarily closed
     0:16:57: Pipe J_M1_SNT2_Stub_55 changed from open to temporarily closed
     0:16:57: Pump BOOSTER_PUMP changed from open to temporarily closed
   
  WARNING: Negative pressures at 0:16:57 hrs.
  WARNING: FCV V3 open but cannot deliver flow at 0:16:57 hrs.
  WARNING: FCV V8 open but cannot deliver flow at 0:16:57 hrs.
  WARNING: FCV V10 open but cannot deliver flow at 0:16:57 hrs.
  WARNING: FCV V11 open but cannot deliver flow at 0:16:57 hrs.
  WARNING: FCV V12 open but cannot deliver flow at 0:16:57 hrs.
  WARNING: Pump WELL_PUMP open but exceeds maximum flow at 0:16:57 hrs.
  WARNING: System unbalanced at 0:16:57 hrs.
  WARNING: Node J_SNT1_160 disconnected at 0:16:57 hrs
  WARNING: Node J_V1_IN_160 disconnected at 0:16:57 hrs
  WARNING: Node J_V1_OUT_160 disconnected at 0:16:57 hrs
  WARNING: Node J_SNT1_360 disconnected at 0:16:57 hrs
  WARNING: Node J_V2_IN_360 disconnected at 0:16:57 hrs
  WARNING: Node J_V2_OUT_360 disconnected at 0:16:57 hrs
  WARNING: Node J_SNT1_445 disconnected at 0:16:57 hrs
  WARNING: Node J_TEE_SNT1_445 disconnected at 0:16:57 hrs
  WARNING: Node J_CNT1_Stub disconnected at 0:16:57 hrs
  WARNING: Node J_CNT1 disconnected at 0:16:57 hrs
  WARNING: 398 additional nodes disconnected at 0:16:57 hrs
  WARNING: System disconnected because of Link J_M1_SNT1_160
   
     0:16:58: Pump BOOSTER_PUMP changed by Tank T1 control
     0:16:58: Unbalanced after 51 trials (flow change = 0.010160)
     0:16:58: Tank J_T1_SUC is emptying at 40.18 ft
   
  WARNING: Negative pressures at 0:16:58 hrs.
  WARNING: FCV V3 open but cannot deliver flow at 0:16:58 hrs.
  WARNING: FCV V8 open but cannot deliver flow at 0:16:58 hrs.
  WARNING: FCV V10 open but cannot deliver flow at 0:16:58 hrs.
  WARNING: FCV V11 open but cannot deliver flow at 0:16:58 hrs.
  WARNING: FCV V12 open but cannot deliver flow at 0:16:58 hrs.
  WARNING: Pump WELL_PUMP open but exceeds maximum flow at 0:16:58 hrs.
  WARNING: System unbalanced at 0:16:58 hrs.
  WARNING: Node J_SNT1_160 disconnected at 0:16:58 hrs
  WARNING: Node J_V1_IN_160 disconnected at 0:16:58 hrs
  WARNING: Node J_V1_OUT_160 disconnected at 0:16:58 hrs
  WARNING: Node J_SNT1_360 disconnected at 0:16:58 hrs
  WARNING: Node J_V2_IN_360 disconnected at 0:16:58 hrs
  WARNING: Node J_V2_OUT_360 disconnected at 0:16:58 hrs
  WARNING: Node J_SNT1_445 disconnected at 0:16:58 hrs
  WARNING: Node J_TEE_SNT1_445 disconnected at 0:16:58 hrs
  WARNING: Node J_CNT1_Stub disconnected at 0:16:58 hrs
  WARNING: Node J_CNT1 disconnected at 0:16:58 hrs
  WARNING: 398 additional nodes disconnected at 0:16:58 hrs
  WARNING: System disconnected because of Link J_M1_SNT1_160
   
     0:17:11: Pump BOOSTER_PUMP changed by Tank T1 control
     0:17:11: Unbalanced after 51 trials (flow change = 0.010903)
     0:17:11: Tank T1 is emptying at 47.04 ft
     0:17:11: Tank M1 is emptying at 40.16 ft
     0:17:11: Tank J_BP1_SUC is filling at 40.00 ft
     0:17:11: Pipe J_T1_M1 changed from temporarily closed to open
     0:17:11: Pipe J_M1_SNT1_160 changed from temporarily closed to open
     0:17:11: Pipe J_M1_SNT2_Stub_55 changed from temporarily closed to open
     0:17:11: Pump BOOSTER_PUMP changed from temporarily closed to open
   
  WARNING: Negative pressures at 0:17:11 hrs.
  WARNING: FCV V3 open but cannot deliver flow at 0:17:11 hrs.
  WARNING: FCV V8 open but cannot deliver flow at 0:17:11 hrs.
  WARNING: FCV V10 open but cannot deliver flow at 0:17:11 hrs.
  WARNING: FCV V11 open but cannot deliver flow at 0:17:11 hrs.
  WARNING: FCV V12 open but cannot deliver flow at 0:17:11 hrs.
  WARNING: Pump WELL_PUMP open but exceeds maximum flow at 0:17:11 hrs.
  WARNING: System unbalanced at 0:17:11 hrs.
   
     0:17:15: Unbalanced after 51 trials (flow change = 0.044966)
     0:17:15: Tank T1 is filling at 46.19 ft
     0:17:15: Tank M1 is filling at 40.00 ft
     0:17:15: Tank J_T1_SUC is filling at 40.01 ft
     0:17:15: Tank J_BP1_SUC is emptying at 40.16 ft
     0:17:15: Pipe J_T1_M1 changed from open to temporarily closed
     0:17:15: Pipe J_M1_SNT1_160 changed from open to temporarily closed
     0:17:15: Pipe J_M1_SNT2_Stub_55 changed from open to temporarily closed
     0:17:15: Pump BOOSTER_PUMP changed from open to temporarily closed
   
  WARNING: Negative pressures at 0:17:15 hrs.
  WARNING: FCV V3 open but cannot deliver flow at 0:17:15 hrs.
  WARNING: FCV V8 open but cannot deliver flow at 0:17:15 hrs.
  WARNING: FCV V10 open but cannot deliver flow at 0:17:15 hrs.
  WARNING: FCV V11 open but cannot deliver flow at 0:17:15 hrs.
  WARNING: FCV V12 open but cannot deliver flow at 0:17:15 hrs.
  WARNING: Pump WELL_PUMP open but exceeds maximum flow at 0:17:15 hrs.
  WARNING: System unbalanced at 0:17:15 hrs.
  WARNING: Node J_SNT1_160 disconnected at 0:17:15 hrs
  WARNING: Node J_V1_IN_160 disconnected at 0:17:15 hrs
  WARNING: Node J_V1_OUT_160 disconnected at 0:17:15 hrs
  WARNING: Node J_SNT1_360 disconnected at 0:17:15 hrs
  WARNING: Node J_V2_IN_360 disconnected at 0:17:15 hrs
  WARNING: Node J_V2_OUT_360 disconnected at 0:17:15 hrs
  WARNING: Node J_SNT1_445 disconnected at 0:17:15 hrs
  WARNING: Node J_TEE_SNT1_445 disconnected at 0:17:15 hrs
  WARNING: Node J_CNT1_Stub disconnected at 0:17:15 hrs
  WARNING: Node J_CNT1 disconnected at 0:17:15 hrs
  WARNING: 398 additional nodes disconnected at 0:17:15 hrs
  WARNING: System disconnected because of Link J_M1_SNT1_160
   
     0:17:19: Pump BOOSTER_PUMP changed by Tank T1 control
     0:17:19: Unbalanced after 51 trials (flow change = 0.009556)
     0:17:19: Tank T1 is emptying at 46.45 ft
     0:17:19: Tank M1 is emptying at 40.05 ft
     0:17:19: Tank J_T1_SUC is emptying at 40.10 ft
     0:17:19: Tank J_BP1_SUC is filling at 39.99 ft
     0:17:19: Pipe J_T1_M1 changed from temporarily closed to open
     0:17:19: Pipe J_M1_SNT1_160 changed from temporarily closed to open
     0:17:19: Pipe J_M1_SNT2_Stub_55 changed from temporarily closed to open
     0:17:19: Pump BOOSTER_PUMP changed from temporarily closed to open
   
  WARNING: Negative pressures at 0:17:19 hrs.
  WARNING: FCV V3 open but cannot deliver flow at 0:17:19 hrs.
  WARNING: FCV V8 open but cannot deliver flow at 0:17:19 hrs.
  WARNING: FCV V10 open but cannot deliver flow at 0:17:19 hrs.
  WARNING: FCV V11 open but cannot deliver flow at 0:17:19 hrs.
  WARNING: FCV V12 open but cannot deliver flow at 0:17:19 hrs.
  WARNING: Pump WELL_PUMP open but exceeds maximum flow at 0:17:19 hrs.
  WARNING: System unbalanced at 0:17:19 hrs.
   
     0:17:20: Unbalanced after 51 trials (flow change = 0.051511)
     0:17:20: Tank M1 is filling at 38.01 ft
     0:17:20: Pipe J_BP1 changed from open to temporarily closed
     0:17:20: Pipe J_BP1_DIS_M1 changed from open to temporarily closed
     0:17:20: Pipe J_M1_SNT1_160 changed from open to temporarily closed
     0:17:20: Pipe J_M1_SNT2_Stub_55 changed from open to temporarily closed
     0:17:20: Pump BOOSTER_PUMP changed from open to temporarily closed
   
  WARNING: Negative pressures at 0:17:20 hrs.
  WARNING: FCV V3 open but cannot deliver flow at 0:17:20 hrs.
  WARNING: FCV V8 open but cannot deliver flow at 0:17:20 hrs.
  WARNING: FCV V10 open but cannot deliver flow at 0:17:20 hrs.
  WARNING: FCV V11 open but cannot deliver flow at 0:17:20 hrs.
  WARNING: FCV V12 open but cannot deliver flow at 0:17:20 hrs.
  WARNING: Pump WELL_PUMP open but exceeds maximum flow at 0:17:20 hrs.
  WARNING: System unbalanced at 0:17:20 hrs.
  WARNING: Node J_BP1_DIS disconnected at 0:17:20 hrs
  WARNING: Node J_SNT1_160 disconnected at 0:17:20 hrs
  WARNING: Node J_V1_IN_160 disconnected at 0:17:20 hrs
  WARNING: Node J_V1_OUT_160 disconnected at 0:17:20 hrs
  WARNING: Node J_SNT1_360 disconnected at 0:17:20 hrs
  WARNING: Node J_V2_IN_360 disconnected at 0:17:20 hrs
  WARNING: Node J_V2_OUT_360 disconnected at 0:17:20 hrs
  WARNING: Node J_SNT1_445 disconnected at 0:17:20 hrs
  WARNING: Node J_TEE_SNT1_445 disconnected at 0:17:20 hrs
  WARNING: Node J_CNT1_Stub disconnected at 0:17:20 hrs
  WARNING: 399 additional nodes disconnected at 0:17:20 hrs
  WARNING: System disconnected because of Link J_M1_SNT1_160
   
     0:17:25: Pump BOOSTER_PUMP changed by Tank T1 control
     0:17:25: Unbalanced after 51 trials (flow change = 0.024980)
     0:17:25: Tank T1 is filling at 46.20 ft
     0:17:25: Tank J_T1_SUC is filling at 40.00 ft
     0:17:25: Tank J_BP1_SUC is emptying at 40.08 ft
     0:17:25: Pipe J_T1_M1 changed from open to temporarily closed
     0:17:25: Pipe J_BP1 changed from temporarily closed to open
     0:17:25: Pipe J_BP1_DIS_M1 changed from temporarily closed to open
     0:17:25: FCV V8 changed from open but cannot deliver flow to active
   
  WARNING: Negative pressures at 0:17:25 hrs.
  WARNING: FCV V3 open but cannot deliver flow at 0:17:25 hrs.
  WARNING: FCV V10 open but cannot deliver flow at 0:17:25 hrs.
  WARNING: FCV V11 open but cannot deliver flow at 0:17:25 hrs.
  WARNING: FCV V12 open but cannot deliver flow at 0:17:25 hrs.
  WARNING: Pump WELL_PUMP open but exceeds maximum flow at 0:17:25 hrs.
  WARNING: System unbalanced at 0:17:25 hrs.
  WARNING: Node J_SNT1_160 disconnected at 0:17:25 hrs
  WARNING: Node J_V1_IN_160 disconnected at 0:17:25 hrs
  WARNING: Node J_V1_OUT_160 disconnected at 0:17:25 hrs
  WARNING: Node J_SNT1_360 disconnected at 0:17:25 hrs
  WARNING: Node J_V2_IN_360 disconnected at 0:17:25 hrs
  WARNING: Node J_V2_OUT_360 disconnected at 0:17:25 hrs
  WARNING: Node J_SNT1_445 disconnected at 0:17:25 hrs
  WARNING: Node J_TEE_SNT1_445 disconnected at 0:17:25 hrs
  WARNING: Node J_CNT1_Stub disconnected at 0:17:25 hrs
  WARNING: Node J_CNT1 disconnected at 0:17:25 hrs
  WARNING: 398 additional nodes disconnected at 0:17:25 hrs
  WARNING: System disconnected because of Link J_M1_SNT1_160
   
     0:17:28: Pump BOOSTER_PUMP changed by Tank T1 control
     0:17:28: Balanced after 29 trials
     0:17:28: Tank T1 is emptying at 46.39 ft
     0:17:28: Tank M1 is emptying at 40.02 ft
     0:17:28: Tank J_T1_SUC is emptying at 40.05 ft
     0:17:28: Tank J_BP1_SUC is filling at 39.99 ft
     0:17:28: Pipe J_T1_M1 changed from temporarily closed to open
     0:17:28: Pipe J_M1_SNT1_160 changed from temporarily closed to open
     0:17:28: Pipe J_M1_SNT2_Stub_55 changed from temporarily closed to open
     0:17:28: Pump BOOSTER_PUMP changed from temporarily closed to open
     0:17:28: FCV V8 changed from active to open but cannot deliver flow
   
  WARNING: Negative pressures at 0:17:28 hrs.
  WARNING: FCV V3 open but cannot deliver flow at 0:17:28 hrs.
  WARNING: FCV V8 open but cannot deliver flow at 0:17:28 hrs.
  WARNING: FCV V10 open but cannot deliver flow at 0:17:28 hrs.
  WARNING: FCV V11 open but cannot deliver flow at 0:17:28 hrs.
  WARNING: FCV V12 open but cannot deliver flow at 0:17:28 hrs.
  WARNING: Pump WELL_PUMP open but exceeds maximum flow at 0:17:28 hrs.
   
     0:17:29: Unbalanced after 51 trials (flow change = 0.015345)
     0:17:29: Tank T1 is filling at 46.19 ft
     0:17:29: Tank M1 is closed at 37.99 ft
     0:17:29: Pipe J_T1_M1 changed from open to temporarily closed
     0:17:29: Pipe J_BP1 changed from open to temporarily closed
     0:17:29: Pipe J_BP1_DIS_M1 changed from open to temporarily closed
     0:17:29: Pipe J_M1_SNT1_160 changed from open to temporarily closed
     0:17:29: Pipe J_M1_SNT2_Stub_55 changed from open to temporarily closed
     0:17:29: Pump BOOSTER_PUMP changed from open to temporarily closed
   
  WARNING: Negative pressures at 0:17:29 hrs.
  WARNING: FCV V3 open but cannot deliver flow at 0:17:29 hrs.
  WARNING: FCV V8 open but cannot deliver flow at 0:17:29 hrs.
  WARNING: FCV V10 open but cannot deliver flow at 0:17:29 hrs.
  WARNING: FCV V11 open but cannot deliver flow at 0:17:29 hrs.
  WARNING: FCV V12 open but cannot deliver flow at 0:17:29 hrs.
  WARNING: Pump WELL_PUMP open but exceeds maximum flow at 0:17:29 hrs.
  WARNING: System unbalanced at 0:17:29 hrs.
  WARNING: Node J_BP1_DIS disconnected at 0:17:29 hrs
  WARNING: Node J_SNT1_160 disconnected at 0:17:29 hrs
  WARNING: Node J_V1_IN_160 disconnected at 0:17:29 hrs
  WARNING: Node J_V1_OUT_160 disconnected at 0:17:29 hrs
  WARNING: Node J_SNT1_360 disconnected at 0:17:29 hrs
  WARNING: Node J_V2_IN_360 disconnected at 0:17:29 hrs
  WARNING: Node J_V2_OUT_360 disconnected at 0:17:29 hrs
  WARNING: Node J_SNT1_445 disconnected at 0:17:29 hrs
  WARNING: Node J_TEE_SNT1_445 disconnected at 0:17:29 hrs
  WARNING: Node J_CNT1_Stub disconnected at 0:17:29 hrs
  WARNING: 399 additional nodes disconnected at 0:17:29 hrs
  WARNING: System disconnected because of Link J_M1_SNT1_160
   
     0:17:32: Pump BOOSTER_PUMP changed by Tank T1 control
     0:17:32: Unbalanced after 51 trials (flow change = 0.020543)
     0:17:32: Tank T1 is emptying at 46.38 ft
     0:17:32: Tank M1 is filling at 40.00 ft
     0:17:32: Tank J_T1_SUC is filling at 40.00 ft
     0:17:32: Tank J_BP1_SUC is emptying at 40.03 ft
     0:17:32: Pipe J_T1_M1 changed from temporarily closed to open
     0:17:32: Pipe J_BP1 changed from temporarily closed to open
     0:17:32: Pipe J_BP1_DIS_M1 changed from temporarily closed to open
   
  WARNING: Negative pressures at 0:17:32 hrs.
  WARNING: FCV V3 open but cannot deliver flow at 0:17:32 hrs.
  WARNING: FCV V8 open but cannot deliver flow at 0:17:32 hrs.
  WARNING: FCV V10 open but cannot deliver flow at 0:17:32 hrs.
  WARNING: FCV V11 open but cannot deliver flow at 0:17:32 hrs.
  WARNING: FCV V12 open but cannot deliver flow at 0:17:32 hrs.
  WARNING: Pump WELL_PUMP open but exceeds maximum flow at 0:17:32 hrs.
  WARNING: System unbalanced at 0:17:32 hrs.
  WARNING: Node J_SNT1_160 disconnected at 0:17:32 hrs
  WARNING: Node J_V1_IN_160 disconnected at 0:17:32 hrs
  WARNING: Node J_V1_OUT_160 disconnected at 0:17:32 hrs
  WARNING: Node J_SNT1_360 disconnected at 0:17:32 hrs
  WARNING: Node J_V2_IN_360 disconnected at 0:17:32 hrs
  WARNING: Node J_V2_OUT_360 disconnected at 0:17:32 hrs
  WARNING: Node J_SNT1_445 disconnected at 0:17:32 hrs
  WARNING: Node J_TEE_SNT1_445 disconnected at 0:17:32 hrs
  WARNING: Node J_CNT1_Stub disconnected at 0:17:32 hrs
  WARNING: Node J_CNT1 disconnected at 0:17:32 hrs
  WARNING: 398 additional nodes disconnected at 0:17:32 hrs
  WARNING: System disconnected because of Link J_M1_SNT1_160
   
     0:17:33: Pump BOOSTER_PUMP changed by Tank T1 control
     0:17:33: Unbalanced after 51 trials (flow change = 0.027137)
     0:17:33: Tank T1 is filling at 46.18 ft
     0:17:33: Tank M1 is emptying at 40.00 ft
     0:17:33: Tank J_T1_SUC is emptying at 40.01 ft
     0:17:33: Pipe J_T1_M1 changed from open to temporarily closed
   
  WARNING: Negative pressures at 0:17:33 hrs.
  WARNING: FCV V3 open but cannot deliver flow at 0:17:33 hrs.
  WARNING: FCV V8 open but cannot deliver flow at 0:17:33 hrs.
  WARNING: FCV V10 open but cannot deliver flow at 0:17:33 hrs.
  WARNING: FCV V11 open but cannot deliver flow at 0:17:33 hrs.
  WARNING: FCV V12 open but cannot deliver flow at 0:17:33 hrs.
  WARNING: Pump WELL_PUMP open but exceeds maximum flow at 0:17:33 hrs.
  WARNING: System unbalanced at 0:17:33 hrs.
  WARNING: Node J_SNT1_160 disconnected at 0:17:33 hrs
  WARNING: Node J_V1_IN_160 disconnected at 0:17:33 hrs
  WARNING: Node J_V1_OUT_160 disconnected at 0:17:33 hrs
  WARNING: Node J_SNT1_360 disconnected at 0:17:33 hrs
  WARNING: Node J_V2_IN_360 disconnected at 0:17:33 hrs
  WARNING: Node J_V2_OUT_360 disconnected at 0:17:33 hrs
  WARNING: Node J_SNT1_445 disconnected at 0:17:33 hrs
  WARNING: Node J_TEE_SNT1_445 disconnected at 0:17:33 hrs
  WARNING: Node J_CNT1_Stub disconnected at 0:17:33 hrs
  WARNING: Node J_CNT1 disconnected at 0:17:33 hrs
  WARNING: 398 additional nodes disconnected at 0:17:33 hrs
  WARNING: System disconnected because of Link J_M1_SNT1_160
   
     0:17:35: Pump BOOSTER_PUMP changed by Tank T1 control
     0:17:35: Unbalanced after 51 trials (flow change = 0.032325)
     0:17:35: Tank T1 is emptying at 46.31 ft
     0:17:35: Tank M1 is filling at 40.00 ft
     0:17:35: Tank J_BP1_SUC is filling at 40.00 ft
     0:17:35: Pipe J_T1_M1 changed from temporarily closed to open
   
  WARNING: Negative pressures at 0:17:35 hrs.
  WARNING: FCV V3 open but cannot deliver flow at 0:17:35 hrs.
  WARNING: FCV V8 open but cannot deliver flow at 0:17:35 hrs.
  WARNING: FCV V10 open but cannot deliver flow at 0:17:35 hrs.
  WARNING: FCV V11 open but cannot deliver flow at 0:17:35 hrs.
  WARNING: FCV V12 open but cannot deliver flow at 0:17:35 hrs.
  WARNING: Pump WELL_PUMP open but exceeds maximum flow at 0:17:35 hrs.
  WARNING: System unbalanced at 0:17:35 hrs.
  WARNING: Node J_SNT1_160 disconnected at 0:17:35 hrs
  WARNING: Node J_V1_IN_160 disconnected at 0:17:35 hrs
  WARNING: Node J_V1_OUT_160 disconnected at 0:17:35 hrs
  WARNING: Node J_SNT1_360 disconnected at 0:17:35 hrs
  WARNING: Node J_V2_IN_360 disconnected at 0:17:35 hrs
  WARNING: Node J_V2_OUT_360 disconnected at 0:17:35 hrs
  WARNING: Node J_SNT1_445 disconnected at 0:17:35 hrs
  WARNING: Node J_TEE_SNT1_445 disconnected at 0:17:35 hrs
  WARNING: Node J_CNT1_Stub disconnected at 0:17:35 hrs
  WARNING: Node J_CNT1 disconnected at 0:17:35 hrs
  WARNING: 398 additional nodes disconnected at 0:17:35 hrs
  WARNING: System disconnected because of Link J_M1_SNT1_160
   
     0:17:36: Pump BOOSTER_PUMP changed by Tank T1 control
     0:17:36: Unbalanced after 51 trials (flow change = 0.038953)
     0:17:36: Tank T1 is filling at 46.11 ft
     0:17:36: Tank M1 is emptying at 40.00 ft
     0:17:36: Tank J_BP1_SUC is emptying at 40.00 ft
[...]
  WARNING: FCV V10 open but cannot deliver flow at 1:56:00 hrs.
  WARNING: FCV V11 open but cannot deliver flow at 1:56:00 hrs.
  WARNING: FCV V12 open but cannot deliver flow at 1:56:00 hrs.
  WARNING: Pump WELL_PUMP open but exceeds maximum flow at 1:56:00 hrs.
  WARNING: System unbalanced at 1:56:00 hrs.
  WARNING: Node J_SNT1_160 disconnected at 1:56:00 hrs
  WARNING: Node J_V1_IN_160 disconnected at 1:56:00 hrs
  WARNING: Node J_V1_OUT_160 disconnected at 1:56:00 hrs
  WARNING: Node J_SNT1_360 disconnected at 1:56:00 hrs
  WARNING: Node J_V2_IN_360 disconnected at 1:56:00 hrs
  WARNING: Node J_V2_OUT_360 disconnected at 1:56:00 hrs
  WARNING: Node J_SNT1_445 disconnected at 1:56:00 hrs
  WARNING: Node J_TEE_SNT1_445 disconnected at 1:56:00 hrs
  WARNING: Node J_CNT1_Stub disconnected at 1:56:00 hrs
  WARNING: Node J_CNT1 disconnected at 1:56:00 hrs
  WARNING: 398 additional nodes disconnected at 1:56:00 hrs
  WARNING: System disconnected because of Link J_M1_SNT1_160
   
     1:56:31: Pump BOOSTER_PUMP changed by Tank T1 control
     1:56:31: Unbalanced after 51 trials (flow change = 0.010703)
     1:56:31: Tank T1 is emptying at 48.19 ft
     1:56:31: Tank M1 is emptying at 40.94 ft
     1:56:31: Tank J_T1_SUC is filling at 40.03 ft
     1:56:31: Tank J_BP1_SUC is emptying at 41.94 ft
     1:56:31: Pipe J_T1_M1 changed from temporarily closed to open
     1:56:31: Pipe J_M1_SNT1_160 changed from temporarily closed to open
     1:56:31: Pipe J_M1_SNT2_Stub_55 changed from temporarily closed to open
     1:56:31: Pump BOOSTER_PUMP changed from temporarily closed to open
   
  WARNING: Negative pressures at 1:56:31 hrs.
  WARNING: FCV V3 open but cannot deliver flow at 1:56:31 hrs.
  WARNING: FCV V8 open but cannot deliver flow at 1:56:31 hrs.
  WARNING: FCV V10 open but cannot deliver flow at 1:56:31 hrs.
  WARNING: FCV V11 open but cannot deliver flow at 1:56:31 hrs.
  WARNING: FCV V12 open but cannot deliver flow at 1:56:31 hrs.
  WARNING: Pump WELL_PUMP open but exceeds maximum flow at 1:56:31 hrs.
  WARNING: System unbalanced at 1:56:31 hrs.
   
     1:56:40: Unbalanced after 51 trials (flow change = 0.028471)
     1:56:40: Tank M1 is filling at 40.00 ft
     1:56:40: Pipe J_M1_SNT1_160 changed from open to temporarily closed
     1:56:40: Pipe J_M1_SNT2_Stub_55 changed from open to temporarily closed
     1:56:40: Pump BOOSTER_PUMP changed from open to temporarily closed
   
  WARNING: Negative pressures at 1:56:40 hrs.
  WARNING: FCV V3 open but cannot deliver flow at 1:56:40 hrs.
  WARNING: FCV V8 open but cannot deliver flow at 1:56:40 hrs.
  WARNING: FCV V10 open but cannot deliver flow at 1:56:40 hrs.
  WARNING: FCV V11 open but cannot deliver flow at 1:56:40 hrs.
  WARNING: FCV V12 open but cannot deliver flow at 1:56:40 hrs.
  WARNING: Pump WELL_PUMP open but exceeds maximum flow at 1:56:40 hrs.
  WARNING: System unbalanced at 1:56:40 hrs.
  WARNING: Node J_SNT1_160 disconnected at 1:56:40 hrs
  WARNING: Node J_V1_IN_160 disconnected at 1:56:40 hrs
  WARNING: Node J_V1_OUT_160 disconnected at 1:56:40 hrs
  WARNING: Node J_SNT1_360 disconnected at 1:56:40 hrs
  WARNING: Node J_V2_IN_360 disconnected at 1:56:40 hrs
  WARNING: Node J_V2_OUT_360 disconnected at 1:56:40 hrs
  WARNING: Node J_SNT1_445 disconnected at 1:56:40 hrs
  WARNING: Node J_TEE_SNT1_445 disconnected at 1:56:40 hrs
  WARNING: Node J_CNT1_Stub disconnected at 1:56:40 hrs
  WARNING: Node J_CNT1 disconnected at 1:56:40 hrs
  WARNING: 398 additional nodes disconnected at 1:56:40 hrs
  WARNING: System disconnected because of Link J_M1_SNT1_160
   
     1:56:54: Pump BOOSTER_PUMP changed by Tank T1 control
     1:56:54: Unbalanced after 51 trials (flow change = 0.006783)
     1:56:54: Tank T1 is filling at 46.20 ft
     1:56:54: Tank M1 is emptying at 42.57 ft
     1:56:54: Tank J_T1_SUC is emptying at 41.12 ft
     1:56:54: Tank J_BP1_SUC is filling at 39.97 ft
     1:56:54: Pipe J_T1_M1 changed from open to temporarily closed
     1:56:54: Pipe J_M1_SNT1_160 changed from temporarily closed to open
     1:56:54: Pipe J_M1_SNT2_Stub_55 changed from temporarily closed to open
     1:56:54: Pump BOOSTER_PUMP changed from temporarily closed to open
   
  WARNING: Negative pressures at 1:56:54 hrs.
  WARNING: FCV V3 open but cannot deliver flow at 1:56:54 hrs.
  WARNING: FCV V8 open but cannot deliver flow at 1:56:54 hrs.
  WARNING: FCV V10 open but cannot deliver flow at 1:56:54 hrs.
  WARNING: FCV V11 open but cannot deliver flow at 1:56:54 hrs.
  WARNING: FCV V12 open but cannot deliver flow at 1:56:54 hrs.
  WARNING: Pump WELL_PUMP open but exceeds maximum flow at 1:56:54 hrs.
  WARNING: Pump BOOSTER_PUMP open but exceeds maximum flow at 1:56:54 hrs.
  WARNING: System unbalanced at 1:56:54 hrs.
   
     1:56:55: Unbalanced after 51 trials (flow change = 0.001839)
   
  WARNING: Negative pressures at 1:56:55 hrs.
  WARNING: FCV V3 open but cannot deliver flow at 1:56:55 hrs.
  WARNING: FCV V8 open but cannot deliver flow at 1:56:55 hrs.
  WARNING: FCV V10 open but cannot deliver flow at 1:56:55 hrs.
  WARNING: FCV V11 open but cannot deliver flow at 1:56:55 hrs.
  WARNING: FCV V12 open but cannot deliver flow at 1:56:55 hrs.
  WARNING: Pump WELL_PUMP open but exceeds maximum flow at 1:56:55 hrs.
  WARNING: Pump BOOSTER_PUMP open but exceeds maximum flow at 1:56:55 hrs.
  WARNING: System unbalanced at 1:56:55 hrs.
   
     1:57:12: Unbalanced after 51 trials (flow change = 0.037386)
     1:57:12: Tank T1 is emptying at 47.29 ft
     1:57:12: Tank M1 is filling at 40.00 ft
     1:57:12: Tank J_T1_SUC is filling at 40.02 ft
     1:57:12: Tank J_BP1_SUC is emptying at 41.58 ft
     1:57:12: Pipe J_T1_M1 changed from temporarily closed to open
     1:57:12: Pipe J_M1_SNT1_160 changed from open to temporarily closed
     1:57:12: Pipe J_M1_SNT2_Stub_55 changed from open to temporarily closed
     1:57:12: Pump BOOSTER_PUMP changed from open to temporarily closed
   
  WARNING: Negative pressures at 1:57:12 hrs.
  WARNING: FCV V3 open but cannot deliver flow at 1:57:12 hrs.
  WARNING: FCV V8 open but cannot deliver flow at 1:57:12 hrs.
  WARNING: FCV V10 open but cannot deliver flow at 1:57:12 hrs.
  WARNING: FCV V11 open but cannot deliver flow at 1:57:12 hrs.
  WARNING: FCV V12 open but cannot deliver flow at 1:57:12 hrs.
  WARNING: Pump WELL_PUMP open but exceeds maximum flow at 1:57:12 hrs.
  WARNING: System unbalanced at 1:57:12 hrs.
  WARNING: Node J_SNT1_160 disconnected at 1:57:12 hrs
  WARNING: Node J_V1_IN_160 disconnected at 1:57:12 hrs
  WARNING: Node J_V1_OUT_160 disconnected at 1:57:12 hrs
  WARNING: Node J_SNT1_360 disconnected at 1:57:12 hrs
  WARNING: Node J_V2_IN_360 disconnected at 1:57:12 hrs
  WARNING: Node J_V2_OUT_360 disconnected at 1:57:12 hrs
  WARNING: Node J_SNT1_445 disconnected at 1:57:12 hrs
  WARNING: Node J_TEE_SNT1_445 disconnected at 1:57:12 hrs
  WARNING: Node J_CNT1_Stub disconnected at 1:57:12 hrs
  WARNING: Node J_CNT1 disconnected at 1:57:12 hrs
  WARNING: 398 additional nodes disconnected at 1:57:12 hrs
  WARNING: System disconnected because of Link J_M1_SNT1_160
   
     1:57:17: Pump BOOSTER_PUMP changed by Tank T1 control
     1:57:17: Unbalanced after 51 trials (flow change = 0.009631)
     1:57:17: Tank T1 is filling at 46.19 ft
     1:57:17: Tank M1 is emptying at 41.04 ft
     1:57:17: Pipe J_T1_M1 changed from open to temporarily closed
     1:57:17: Pipe J_M1_SNT1_160 changed from temporarily closed to open
     1:57:17: Pipe J_M1_SNT2_Stub_55 changed from temporarily closed to open
     1:57:17: Pump BOOSTER_PUMP changed from temporarily closed to open
   
  WARNING: Negative pressures at 1:57:17 hrs.
  WARNING: FCV V3 open but cannot deliver flow at 1:57:17 hrs.
  WARNING: FCV V8 open but cannot deliver flow at 1:57:17 hrs.
  WARNING: FCV V10 open but cannot deliver flow at 1:57:17 hrs.
  WARNING: FCV V11 open but cannot deliver flow at 1:57:17 hrs.
  WARNING: FCV V12 open but cannot deliver flow at 1:57:17 hrs.
  WARNING: Pump WELL_PUMP open but exceeds maximum flow at 1:57:17 hrs.
  WARNING: System unbalanced at 1:57:17 hrs.
   
     1:57:56: Unbalanced after 51 trials (flow change = 0.028373)
     1:57:56: Tank T1 is emptying at 48.70 ft
     1:57:56: Tank M1 is filling at 40.00 ft
     1:57:56: Tank J_T1_SUC is emptying at 42.09 ft
     1:57:56: Tank J_BP1_SUC is filling at 40.01 ft
     1:57:56: Pipe J_T1_M1 changed from temporarily closed to open
     1:57:56: Pipe J_BP1_DIS_M1 changed from open to temporarily closed
     1:57:56: Pipe J_M1_SNT1_160 changed from open to temporarily closed
     1:57:56: Pipe J_M1_SNT2_Stub_55 changed from open to temporarily closed
     1:57:56: Pump BOOSTER_PUMP changed from open to temporarily closed
   
  WARNING: Negative pressures at 1:57:56 hrs.
  WARNING: FCV V3 open but cannot deliver flow at 1:57:56 hrs.
  WARNING: FCV V8 open but cannot deliver flow at 1:57:56 hrs.
  WARNING: FCV V10 open but cannot deliver flow at 1:57:56 hrs.
  WARNING: FCV V11 open but cannot deliver flow at 1:57:56 hrs.
  WARNING: FCV V12 open but cannot deliver flow at 1:57:56 hrs.
  WARNING: Pump WELL_PUMP open but exceeds maximum flow at 1:57:56 hrs.
  WARNING: System unbalanced at 1:57:56 hrs.
  WARNING: Node J_SNT1_160 disconnected at 1:57:56 hrs
  WARNING: Node J_V1_IN_160 disconnected at 1:57:56 hrs
  WARNING: Node J_V1_OUT_160 disconnected at 1:57:56 hrs
  WARNING: Node J_SNT1_360 disconnected at 1:57:56 hrs
  WARNING: Node J_V2_IN_360 disconnected at 1:57:56 hrs
  WARNING: Node J_V2_OUT_360 disconnected at 1:57:56 hrs
  WARNING: Node J_SNT1_445 disconnected at 1:57:56 hrs
  WARNING: Node J_TEE_SNT1_445 disconnected at 1:57:56 hrs
  WARNING: Node J_CNT1_Stub disconnected at 1:57:56 hrs
  WARNING: Node J_CNT1 disconnected at 1:57:56 hrs
  WARNING: 398 additional nodes disconnected at 1:57:56 hrs
  WARNING: System disconnected because of Link J_M1_SNT1_160
   
     1:58:00: Pump BOOSTER_PUMP changed by Tank T1 control
     1:58:00: Unbalanced after 51 trials (flow change = 0.005783)
     1:58:00: Tank M1 is emptying at 40.70 ft
     1:58:00: Pipe J_BP1_DIS_M1 changed from temporarily closed to open
     1:58:00: Pipe J_M1_SNT1_160 changed from temporarily closed to open
     1:58:00: Pipe J_M1_SNT2_Stub_55 changed from temporarily closed to open
     1:58:00: Pump BOOSTER_PUMP changed from temporarily closed to open
   
  WARNING: Negative pressures at 1:58:00 hrs.
  WARNING: FCV V3 open but cannot deliver flow at 1:58:00 hrs.
  WARNING: FCV V8 open but cannot deliver flow at 1:58:00 hrs.
  WARNING: FCV V10 open but cannot deliver flow at 1:58:00 hrs.
  WARNING: FCV V11 open but cannot deliver flow at 1:58:00 hrs.
  WARNING: FCV V12 open but cannot deliver flow at 1:58:00 hrs.
  WARNING: Pump WELL_PUMP open but exceeds maximum flow at 1:58:00 hrs.
  WARNING: Pump BOOSTER_PUMP open but exceeds maximum flow at 1:58:00 hrs.
  WARNING: System unbalanced at 1:58:00 hrs.
   
     1:58:07: Unbalanced after 51 trials (flow change = 0.023608)
     1:58:07: Tank M1 is filling at 40.00 ft
     1:58:07: Tank J_BP1_SUC is emptying at 41.05 ft
     1:58:07: Pipe J_M1_SNT1_160 changed from open to temporarily closed
     1:58:07: Pipe J_M1_SNT2_Stub_55 changed from open to temporarily closed
     1:58:07: Pump BOOSTER_PUMP changed from open to temporarily closed
   
  WARNING: Negative pressures at 1:58:07 hrs.
  WARNING: FCV V3 open but cannot deliver flow at 1:58:07 hrs.
  WARNING: FCV V8 open but cannot deliver flow at 1:58:07 hrs.
  WARNING: FCV V10 open but cannot deliver flow at 1:58:07 hrs.
  WARNING: FCV V11 open but cannot deliver flow at 1:58:07 hrs.
  WARNING: FCV V12 open but cannot deliver flow at 1:58:07 hrs.
  WARNING: Pump WELL_PUMP open but exceeds maximum flow at 1:58:07 hrs.
  WARNING: System unbalanced at 1:58:07 hrs.
  WARNING: Node J_SNT1_160 disconnected at 1:58:07 hrs
  WARNING: Node J_V1_IN_160 disconnected at 1:58:07 hrs
  WARNING: Node J_V1_OUT_160 disconnected at 1:58:07 hrs
  WARNING: Node J_SNT1_360 disconnected at 1:58:07 hrs
  WARNING: Node J_V2_IN_360 disconnected at 1:58:07 hrs
  WARNING: Node J_V2_OUT_360 disconnected at 1:58:07 hrs
  WARNING: Node J_SNT1_445 disconnected at 1:58:07 hrs
  WARNING: Node J_TEE_SNT1_445 disconnected at 1:58:07 hrs
  WARNING: Node J_CNT1_Stub disconnected at 1:58:07 hrs
  WARNING: Node J_CNT1 disconnected at 1:58:07 hrs
  WARNING: 398 additional nodes disconnected at 1:58:07 hrs
  WARNING: System disconnected because of Link J_M1_SNT1_160
   
     1:58:55: Pump BOOSTER_PUMP changed by Tank T1 control
     1:58:55: Unbalanced after 51 trials (flow change = 0.014606)
     1:58:55: Tank T1 is filling at 46.20 ft
     1:58:55: Tank M1 is emptying at 48.92 ft
     1:58:55: Tank J_T1_SUC is filling at 39.99 ft
     1:58:55: Tank J_BP1_SUC is filling at 40.06 ft
     1:58:55: Pipe J_M1_SNT1_160 changed from temporarily closed to open
     1:58:55: Pipe J_M1_SNT2_Stub_55 changed from temporarily closed to open
     1:58:55: Pump BOOSTER_PUMP changed from temporarily closed to open
   
  WARNING: Negative pressures at 1:58:55 hrs.
  WARNING: FCV V3 open but cannot deliver flow at 1:58:55 hrs.
  WARNING: FCV V8 open but cannot deliver flow at 1:58:55 hrs.
  WARNING: FCV V10 open but cannot deliver flow at 1:58:55 hrs.
  WARNING: FCV V11 open but cannot deliver flow at 1:58:55 hrs.
  WARNING: FCV V12 open but cannot deliver flow at 1:58:55 hrs.
  WARNING: Pump WELL_PUMP open but exceeds maximum flow at 1:58:55 hrs.
  WARNING: Pump BOOSTER_PUMP open but exceeds maximum flow at 1:58:55 hrs.
  WARNING: System unbalanced at 1:58:55 hrs.
   
     1:58:59: Unbalanced after 51 trials (flow change = 0.041045)
     1:58:59: Tank T1 is emptying at 47.15 ft
     1:58:59: Tank M1 is filling at 39.34 ft
     1:58:59: Tank J_BP1_SUC is emptying at 40.54 ft
     1:58:59: Pipe J_M1_SNT1_160 changed from open to temporarily closed
     1:58:59: Pipe J_M1_SNT2_Stub_55 changed from open to temporarily closed
     1:58:59: Pump BOOSTER_PUMP changed from open to temporarily closed
   
  WARNING: Negative pressures at 1:58:59 hrs.
  WARNING: FCV V3 open but cannot deliver flow at 1:58:59 hrs.
  WARNING: FCV V8 open but cannot deliver flow at 1:58:59 hrs.
  WARNING: FCV V10 open but cannot deliver flow at 1:58:59 hrs.
  WARNING: FCV V11 open but cannot deliver flow at 1:58:59 hrs.
  WARNING: FCV V12 open but cannot deliver flow at 1:58:59 hrs.
  WARNING: Pump WELL_PUMP open but exceeds maximum flow at 1:58:59 hrs.
  WARNING: System unbalanced at 1:58:59 hrs.
  WARNING: Node J_SNT1_160 disconnected at 1:58:59 hrs
  WARNING: Node J_V1_IN_160 disconnected at 1:58:59 hrs
  WARNING: Node J_V1_OUT_160 disconnected at 1:58:59 hrs
  WARNING: Node J_SNT1_360 disconnected at 1:58:59 hrs
  WARNING: Node J_V2_IN_360 disconnected at 1:58:59 hrs
  WARNING: Node J_V2_OUT_360 disconnected at 1:58:59 hrs
  WARNING: Node J_SNT1_445 disconnected at 1:58:59 hrs
  WARNING: Node J_TEE_SNT1_445 disconnected at 1:58:59 hrs
  WARNING: Node J_CNT1_Stub disconnected at 1:58:59 hrs
  WARNING: Node J_CNT1 disconnected at 1:58:59 hrs
  WARNING: 398 additional nodes disconnected at 1:58:59 hrs
  WARNING: System disconnected because of Link J_M1_SNT1_160
   
     1:59:03: Pump BOOSTER_PUMP changed by Tank T1 control
     1:59:03: Unbalanced after 51 trials (flow change = 0.016259)
     1:59:03: Tank J_T1_SUC is emptying at 40.22 ft
   
  WARNING: Negative pressures at 1:59:03 hrs.
  WARNING: FCV V3 open but cannot deliver flow at 1:59:03 hrs.
  WARNING: FCV V8 open but cannot deliver flow at 1:59:03 hrs.
  WARNING: FCV V10 open but cannot deliver flow at 1:59:03 hrs.
  WARNING: FCV V11 open but cannot deliver flow at 1:59:03 hrs.
  WARNING: FCV V12 open but cannot deliver flow at 1:59:03 hrs.
  WARNING: Pump WELL_PUMP open but exceeds maximum flow at 1:59:03 hrs.
  WARNING: System unbalanced at 1:59:03 hrs.
  WARNING: Node J_SNT1_160 disconnected at 1:59:03 hrs
  WARNING: Node J_V1_IN_160 disconnected at 1:59:03 hrs
  WARNING: Node J_V1_OUT_160 disconnected at 1:59:03 hrs
  WARNING: Node J_SNT1_360 disconnected at 1:59:03 hrs
  WARNING: Node J_V2_IN_360 disconnected at 1:59:03 hrs
  WARNING: Node J_V2_OUT_360 disconnected at 1:59:03 hrs
  WARNING: Node J_SNT1_445 disconnected at 1:59:03 hrs
  WARNING: Node J_TEE_SNT1_445 disconnected at 1:59:03 hrs
  WARNING: Node J_CNT1_Stub disconnected at 1:59:03 hrs
  WARNING: Node J_CNT1 disconnected at 1:59:03 hrs
  WARNING: 398 additional nodes disconnected at 1:59:03 hrs
  WARNING: System disconnected because of Link J_M1_SNT1_160
   
     1:59:21: Pump BOOSTER_PUMP changed by Tank T1 control
     1:59:21: Balanced after 34 trials
     1:59:21: Tank T1 is filling at 46.20 ft
     1:59:21: Tank M1 is emptying at 42.89 ft
     1:59:21: Tank J_T1_SUC is filling at 40.00 ft
     1:59:21: Tank J_BP1_SUC is filling at 40.01 ft
     1:59:21: Pipe J_T1_M1 changed from open to temporarily closed
     1:59:21: Pipe J_M1_SNT1_160 changed from temporarily closed to open
     1:59:21: Pipe J_M1_SNT2_Stub_55 changed from temporarily closed to open
     1:59:21: Pump BOOSTER_PUMP changed from temporarily closed to open
   
  WARNING: Negative pressures at 1:59:21 hrs.
  WARNING: FCV V3 open but cannot deliver flow at 1:59:21 hrs.
  WARNING: FCV V8 open but cannot deliver flow at 1:59:21 hrs.
  WARNING: FCV V10 open but cannot deliver flow at 1:59:21 hrs.
  WARNING: FCV V11 open but cannot deliver flow at 1:59:21 hrs.
  WARNING: FCV V12 open but cannot deliver flow at 1:59:21 hrs.
  WARNING: Pump WELL_PUMP open but exceeds maximum flow at 1:59:21 hrs.
  WARNING: Pump BOOSTER_PUMP open but exceeds maximum flow at 1:59:21 hrs.
   
     1:59:22: Unbalanced after 51 trials (flow change = 0.004447)
   
  WARNING: Negative pressures at 1:59:22 hrs.
  WARNING: FCV V3 open but cannot deliver flow at 1:59:22 hrs.
  WARNING: FCV V8 open but cannot deliver flow at 1:59:22 hrs.
  WARNING: FCV V10 open but cannot deliver flow at 1:59:22 hrs.
  WARNING: FCV V11 open but cannot deliver flow at 1:59:22 hrs.
  WARNING: FCV V12 open but cannot deliver flow at 1:59:22 hrs.
  WARNING: Pump WELL_PUMP open but exceeds maximum flow at 1:59:22 hrs.
  WARNING: Pump BOOSTER_PUMP open but exceeds maximum flow at 1:59:22 hrs.
  WARNING: System unbalanced at 1:59:22 hrs.
   
     2:00:00: Unbalanced after 51 trials (flow change = 0.035560)
     2:00:00: Tank T1 is emptying at 48.64 ft
     2:00:00: Tank M1 is filling at 40.00 ft
     2:00:00: Tank J_BP1_SUC is emptying at 41.00 ft
     2:00:00: Pipe J_T1_M1 changed from temporarily closed to open
     2:00:00: Pipe J_M1_SNT1_160 changed from open to temporarily closed
     2:00:00: Pipe J_M1_SNT2_Stub_55 changed from open to temporarily closed
     2:00:00: Pump BOOSTER_PUMP changed from open to temporarily closed
   
  WARNING: Negative pressures at 2:00:00 hrs.
  WARNING: FCV V3 open but cannot deliver flow at 2:00:00 hrs.
  WARNING: FCV V8 open but cannot deliver flow at 2:00:00 hrs.
  WARNING: FCV V10 open but cannot deliver flow at 2:00:00 hrs.
  WARNING: FCV V11 open but cannot deliver flow at 2:00:00 hrs.
  WARNING: FCV V12 open but cannot deliver flow at 2:00:00 hrs.
  WARNING: Pump WELL_PUMP open but exceeds maximum flow at 2:00:00 hrs.
  WARNING: System unbalanced at 2:00:00 hrs.
  WARNING: Node J_SNT1_160 disconnected at 2:00:00 hrs
  WARNING: Node J_V1_IN_160 disconnected at 2:00:00 hrs
  WARNING: Node J_V1_OUT_160 disconnected at 2:00:00 hrs
  WARNING: Node J_SNT1_360 disconnected at 2:00:00 hrs
  WARNING: Node J_V2_IN_360 disconnected at 2:00:00 hrs
  WARNING: Node J_V2_OUT_360 disconnected at 2:00:00 hrs
  WARNING: Node J_SNT1_445 disconnected at 2:00:00 hrs
  WARNING: Node J_TEE_SNT1_445 disconnected at 2:00:00 hrs
  WARNING: Node J_CNT1_Stub disconnected at 2:00:00 hrs
  WARNING: Node J_CNT1 disconnected at 2:00:00 hrs
  WARNING: 398 additional nodes disconnected at 2:00:00 hrs
  WARNING: System disconnected because of Link J_M1_SNT1_160
   
  Analysis ended Sun Jan 11 16:23:36 2026
