  Page 1                                            1/13/2026 2:16:57 AM
  **********************************************************************
  *                             E P A N E T                            *
  *                     Hydraulic and Water Quality                    *
  *                     Analysis for Pipe Networks                     *
  *                           Version 2.2                              *
  **********************************************************************
  
  Input File: PHASE4_TCEQ_MINIMUM_0.600_GPM.inp
  
  Los Botines Vaquero Village - Water Distribution System
  PHASE 4 - Trunk Line Enlargement + Hunter Method
  Scenario: TCEQ Regulatory Minimum (0.60 GPM)
  PHASE 4 CONFIGURATION:
  - Pressure Tank: 1,280 gallons
  - Booster Pump: 40 GPM
  - Network Loops: V14↔V15, V13↔SNT5
  - SNT1/SNT2 Trunk: 4.5 inches (ENLARGED from 2.469)
  - Design Method: Hunter's Probabilistic Approach
  TEST PARAMETERS:
  - Service Connections: 80
  - Flow Rate: 0.60 GPM per connection
  - Total System Demand: 48.00 GPM
  - Booster Capacity: 40 GPM
  - Demand/Capacity Ratio: 120%
  DESIGN METHODOLOGY: Hunter's Probabilistic Demand Estimation
  - Based on fixture unit analysis (486 total f/u)
  - 99th percentile demand per Hunter's Curve
  - 50% RV Park transient adjustment applied
  - Ref: PDHonline M126 (Bhatia 2020), Hunter BMS 65 (1940)
  
  Link - Node Table:
  ----------------------------------------------------------------------
  Link           Start          End                Length  Diameter
  ID             Node           Node                   ft        in
  ----------------------------------------------------------------------
  J_T1_M1        T1             M1                   1.00     2.469
  J_T1_SUC       J_T1_SUC       J_BP1_SUC            1.00     2.469
  J_BP1          J_BP1_SUC      J_BP1_DIS            1.00     2.469
  J_BP1_DIS_M1   J_BP1_DIS      M1                   1.00     2.469
  J_M1_SNT1_160  M1             J_SNT1_160         160.00     4.500
  J_SNT1_V1_IN_160J_SNT1_160     J_V1_IN_160          1.00     2.469
  J_SNT1_V1_OUT_160_360J_V1_OUT_160   J_SNT1_V2_IN_360    200.00     2.469
  P_SNT1_V2_360  J_SNT1_V2_IN_360J_V2_IN_360          1.00     4.500
  J_SNT1_V2_OUT_360_445J_V2_OUT_360   J_SNT1_445          85.00     2.469
  J_TEE_SNT1_445_RUN_INJ_SNT1_445     J_TEE_SNT1_445       1.00     2.469
  J_TEE_SNT1_445_CNT1_stubJ_TEE_SNT1_445 J_CNT1_Stub          1.00     2.469
  J_CNT1_Stub_CNT39_15J_CNT1_Stub    J_CNT1              15.00     1.029
  J_TEE_SNT1_445_525J_SNT1_445     J_TEE_SNT1_525      80.00     2.469
  J_TEE_SNT1_525_CNT2_StubJ_TEE_SNT1_525 J_CNT2_Stub          1.00     2.469
  J_CNT2_Stub_CNT2_40J_CNT2_Stub    J_CNT2              40.00     1.029
  J_TEE_SNT1_525_580J_SNT1_525     J_TEE_SNT1_580      55.00     2.469
  J_TEE_SNT1_580_CNT3_StubJ_TEE_SNT1_580 J_CNT3_Stub          1.00     2.469
  J_CNT3_Stub_CNT3_40J_CNT3_Stub    J_CNT3              40.00     1.029


  Page 2         Los Botines Vaquero Village - Water Distribution System
  Link - Node Table: (continued)
  ----------------------------------------------------------------------
  Link           Start          End                Length  Diameter
  ID             Node           Node                   ft        in
  ----------------------------------------------------------------------
  J_TEE_SNT1_580_635J_SNT1_580     J_TEE_SNT1_635      55.00     2.469
  J_TEE_SNT1_635_RUN_INJ_TEE_SNT1_635 J_TEE_IN_SNT1_635      1.00     2.469
  J_TEE_SNT1_635_CNT4_StubJ_TEE_SNT1_635 J_CNT4_Stub          1.00     2.469
  J_CNT4_Stub_CNT4_40J_CNT4_Stub    J_CNT4              40.00     1.029
  J_TEE_SNT1_635_690J_SNT1_635     J_TEE_SNT1_690      55.00     2.469
  J_SNT1_BEND_IN_690J_SNT1_690     J_SNT1_BEND_IN_690      1.00     2.469
  J_SNT1_BEND_IN_BEND_OUT_690J_SNT1_BEND_IN_690J_SNT1_BEND_OUT_690      1.00     2.469
  J_SNT1_BEND_OUT_680_700J_SNT1_BEND_OUTJ_TEE_SNT1_700      20.00     2.469
  J_TEE_SNT1_700_RUN_INJ_SNT1_700     J_TEE_SNT1_700       1.00     2.469
  J_TEE_SNT1_700_CNT5_STUBJ_TEE_SNT1_700 J_CNT5_Stub          1.00     2.469
  J_CNT5_Stub_CNT5_15J_CNT5_Stub    J_CNT5              15.00     1.029
  J_TEE_SNT1_700_740J_SNT1_700     J_TEE_SNT1_740      40.00     2.469
  J_TEE_SNT1_740_CNT6_StubJ_TEE_SNT1_740 J_CNT6_Stub          1.00     2.469
  J_CNT6_Stub_CNT6_105J_CNT6_Stub    J_CNT6             105.00     1.029
  J_TEE_SNT1_740_795J_SNT1_740     J_TEE_SNT1_795      55.00     2.469
  J_CNT7_Stub_CNT7_40J_CNT7_Stub    J_CNT7              40.00     1.029
  J_TEE_SNT1_795_875J_SNT1_795     J_SNT1_V3_IN_875     80.00     2.469
  J_SNT1_V3_IN_875J_TEE_SNT1_875 J_V2_IN_875          1.00     2.469
  J_TEE_SNT1_V3OUT_875_920J_V3_OUT_875   J_SNT1_920          45.00     2.469
  J_TEE_SNT1_920_CNT8_StubJ_TEE_SNT1_920 J_CNT8_Stub          1.00     2.469
  J_CNT8_Stub_CNT8_40J_CNT8_Stub    J_CNT8             150.00     1.029
  J_TEE_SNT1_920_1000J_SNT1_920     J_SNT1_1000         80.00     2.469
  J_TEE_SNT1_1000_CNT9_StubJ_TEE_SNT1_1000J_CNT9_Stub          1.00     2.469
  J_CNT9_Stub_CNT9_150J_CNT9_Stub    J_CNT9             150.00     1.029
  J_TEE_SNT1_1000_1056J_SNT1_1000    J_TEE_SNT1_1056     56.00     2.469
  J_TEE_SNT1_1056_CNT10_StubJ_TEE_SNT1_1056J_CNT10_Stub         1.00     2.469
  J_CNT10_Stub_CNT10_150J_CNT10_Stub   J_CNT10            150.00     1.029
  J_TEE_SNT1_1056_1076J_SNT1_1056    J_TEE_SNT1_1076     20.00     2.469
  J_TEE_SNT1_1076_CNT11_StubJ_TEE_SNT1_1076J_CNT11_Stub         1.00     2.469
  J_CNT11_Stub_CNT11_150J_CNT11_Stub   J_CNT11            150.00     1.029
  J_TEE_SNT1_1076_1132J_SNT1_1076    J_TEE_SNT1_1132     56.00     2.469
  J_TEE_SNT1_1132_CNT12_StubJ_TEE_SNT1_1132J_CNT12_Stub         1.00     2.469
  J_CNT12_Stub_CNT12_150J_CNT12_Stub   J_CNT12            150.00     1.029
  J_TEE_SNT1_1132_1152J_SNT1_1132    J_TEE_SNT1_1152     56.00     2.469
  J_TEE_SNT1_1152_CNT13_StubJ_TEE_SNT1_1152J_CNT13_Stub         1.00     2.469
  J_CNT13_Stub_CNT13_150J_CNT13_Stub   J_CNT13            150.00     1.029
  J_TEE_SNT1_1152_1208J_SNT1_1152    J_TEE_SNT1_1208     56.00     2.469
  J_TEE_SNT1_1208_CNT14_StubJ_TEE_SNT1_1208J_CNT14_Stub         1.00     2.469
  J_CNT14_Stub_CNT14_150J_CNT14_Stub   J_CNT14            150.00     1.029
  J_TEE_SNT1_1208_1264J_SNT1_1208    J_TEE_SNT1_1264     56.00     2.469
  J_TEE_SNT1_1264_CNT15_StubJ_TEE_SNT1_1264J_CNT15_Stub         1.00     2.469
  J_CNT15_Stub_CNT15_150J_CNT15_Stub   J_CNT15            150.00     1.029
  J_TEE_SNT1_1264_1284J_SNT1_1264    J_TEE_SNT1_1284     20.00     2.469
  J_TEE_SNT1_1284_CNT16_StubJ_TEE_SNT1_1284J_CNT16_Stub         1.00     2.469
  J_CNT16_Stub_CNT16_150J_CNT16_Stub   J_CNT16            150.00     1.029
  J_TEE_SNT1_1284_1340J_SNT1_1284    J_TEE_SNT1_1340     56.00     2.469
  J_TEE_SNT1_1340_CNT17_StubJ_TEE_SNT1_1340J_CNT17_Stub         1.00     2.469


  Page 3         Los Botines Vaquero Village - Water Distribution System
  Link - Node Table: (continued)
  ----------------------------------------------------------------------
  Link           Start          End                Length  Diameter
  ID             Node           Node                   ft        in
  ----------------------------------------------------------------------
  J_CNT17_Stub_CNT17_150J_CNT17_Stub   J_CNT17            150.00     1.029
  J_TEE_SNT1_1340_1355J_SNT1_1340    J_TEE_SNT1_1355     15.00     2.469
  J_TEE_SNT1_1355_CNT18_StubJ_TEE_SNT1_1355J_CNT18_Stub         1.00     2.469
  J_CNT18_Stub_CNT18_150J_CNT18_Stub   J_CNT18            150.00     1.029
  J_TEE_SNT1_1355_1370J_SNT1_1355    J_TEE_SNT1_1370     15.00     2.469
  J_TEE_SNT1_1370_CNT19_StubJ_TEE_SNT1_1370J_CNT19_Stub         1.00     2.469
  J_CNT19_Stub_CNT19_150J_CNT19_Stub   J_CNT19            150.00     1.029
  J_SNT1_1370_1400J_SNT1_1385    J_TEE_SNT1_1400     15.00     2.469
  J_TEE_SNT1_1400_CNT20_StubJ_TEE_SNT1_1370J_CNT20_Stub         1.00     2.469
  J_CNT20_Stub_CNT20_150J_CNT20_Stub   J_CNT20            150.00     1.029
  J_TEE_SNT1_1400_1415J_SNT1_1400    J_TEE_SNT1_1415     15.00     2.469
  J_TEE_SNT1_1400_CNT21_StubJ_TEE_SNT1_1415J_CNT21_Stub         1.00     2.469
  J_CNT21_Stub_CNT21_150J_CNT21_Stub   J_CNT21            150.00     1.029
  J_TEE_SNT1_SNT1_1415_1430J_SNT1_1415    J_TEE_SNT1_1430     15.00     2.469
  J_TEE_SNT1_1430_CNT21_StubJ_TEE_SNT1_1430J_CNT22_Stub         1.00     2.469
  J_CNT22_Stub_CNT22_150J_CNT22_Stub   J_CNT22            150.00     1.029
  J_TEE_SNT1_1430_1445J_TEE_SNT1_1415J_TEE_SNT1_1445     15.00     2.469
  J_TEE_SNT1_1445_RUN_INJ_SNT1_1445    J_TEE_SNT1_1445      1.00     2.469
  J_TEE_SNT1_1445_CNT23_StubJ_TEE_SNT1_1445J_CNT23_Stub         1.00     2.469
  J_CNT23_Stub_CNT23_150J_CNT23_Stub   J_CNT23            150.00     1.029
  J_TEE_SNT1_1445_1460J_SNT1_1445    J_TEE_SNT1_1460     15.00     2.469
  J_TEE_SNT1_1460_CNT24_StubJ_TEE_SNT1_1460J_CNT24_Stub         1.00     2.469
  J_CNT24_Stub_CNT24_150J_CNT24_Stub   J_CNT24            150.00     1.029
  J_TEE_SNT1_1460_1475J_SNT1_1460    J_TEE_SNT1_1475     15.00     2.469
  J_TEE_SNT1_1475_CNT25_StubJ_TEE_SNT1_1475J_CNT25_Stub         1.00     2.469
  J_CNT25_Stub_CNT25_150J_CNT25_Stub   J_CNT25            150.00     1.029
  J_TEE_SNT1_1475_1570J_SNT1_1475    J_TEE_SNT1_1570     95.00     2.469
  J_TEE_SNT1_1570_CNT26_StubJ_TEE_SNT1_1570J_CNT26_Stub         1.00     2.469
  J_CNT26_Stub_CNT26_150J_CNT26_Stub   J_CNT26            150.00     1.029
  J_TEE_SNT1_1570_1585J_SNT1_1570    J_TEE_SNT1_1585     15.00     2.469
  J_TEE_SNT1_1585_CNT27_StubJ_TEE_SNT1_1585J_CNT27_Stub         1.00     2.469
  J_CNT27_Stub_CNT27_150J_CNT27_Stub   J_CNT27            150.00     1.029
  J_TEE_SNT1_1585_1680J_SNT1_1570    J_TEE_SNT1_1680     95.00     2.469
  J_TEE_SNT1_1680_CNT28_StubJ_TEE_SNT1_1680J_CNT28_Stub         1.00     2.469
  J__CNT28_Stub_CNT28_150J_CNT28_Stub   J_CNT28            150.00     1.029
  J_TEE_SNT1_1680_1695J_SNT1_1570    J_TEE_SNT1_1695     15.00     2.469
  J_TEE_SNT1_1695_CNT28_StubJ_TEE_SNT1_1695J_CNT29_Stub         1.00     2.469
  J_CNT29_Stub_CNT29_Stub_150J_CNT29_Stub   J_CNT29            150.00     1.029
  J_TEE_SNT1_1695_1790J_SNT1_1695    J_TEE_SNT1_1790     95.00     2.469
  J_TEE_SNT1_1790_CNT30_StubJ_TEE_SNT1_1790J_CNT30_Stub         1.00     2.469
  J_CNT30_Stub_CNT30_150J_CNT30_Stub   J_CNT30            150.00     1.029
  J_TEE_SNT1_1790_1805J_SNT1_1790    J_TEE_SNT1_1805     15.00     2.469
  J_TEE_SNT1_1790_CNT31_StubJ_TEE_SNT1_1805J_CNT31_Stub         1.00     2.469
  J_CNT31_Stub_CNT31_150J_CNT31_Stub   J_CNT31            150.00     1.029
  J_TEE_SNT1_1805_1900J_SNT1_1805    J_TEE_SNT1_1900     95.00     2.469
  J_TEE_SNT1_1900_CNT32_StubJ_TEE_SNT1_1900J_CNT32_Stub         1.00     2.469
  J_CNT33_Stub_CNT32_150J_CNT32_Stub   J_CNT32            150.00     1.029


  Page 4         Los Botines Vaquero Village - Water Distribution System
  Link - Node Table: (continued)
  ----------------------------------------------------------------------
  Link           Start          End                Length  Diameter
  ID             Node           Node                   ft        in
  ----------------------------------------------------------------------
  J_TEE_SNT1_1900_1915J_SNT1_1900    J_TEE_SNT1_1915     15.00     2.469
  J_TEE_SNT1_1915_CNT33_StubJ_TEE_SNT1_1915J_CNT33_Stub         1.00     2.469
  J_CNT33_Stub_CNT33_150J_CNT33_Stub   J_CNT33            150.00     1.029
  J_TEE_SNT1_1915_2065J_SNT1_1915    J_TEE_SNT1_2065    150.00     2.469
  J_TEE_SNT1_2065_CNT34_StubJ_TEE_SNT1_2065J_CNT34_Stub         1.00     2.469
  J_TEE_CNT34_Stub_CNT34_150J_CNT34_Stub   J_CNT34            150.00     1.029
  J_TEE_SNT1_2065_2080J_SNT1_2065    J_TEE_SNT1_2080     15.00     2.469
  J_TEE_SNT1_2080_CNT35_StubJ_TEE_SNT1_2080J_CNT35_Stub         1.00     2.469
  J_CNT35_Stub_CNT35_150J_CNT35_Stub   J_CNT35            150.00     1.029
  J_TEE_SNT1_2080_2175J_SNT1_2080    J_TEE_SNT1_2175     95.00     2.469
  J_TEE_SNT1_2175_CNT36_StubJ_TEE_SNT1_2175J_CNT36_Stub         1.00     2.469
  J_CNT36_Stub_CNT35_150J_CNT36_Stub   J_CNT36            150.00     1.029
  J_TEE_SNT1_2175_2255J_SNT1_2175    J_SNT1_V4_IN_2255     80.00     2.469
  J_SNT1_V4_IN_2255J_TEE_SNT1_2255J_V4_IN_2255         1.00     2.469
  J_M1_SNT2_Stub_55M1             J_SNT2_Stub_55      55.00     2.469
  J_TEE_SNT2_Stub_55J_SNT2_Stub_55 J_TEE_SNT2_55        1.00     2.469
  J_TEE_SNT2_55_RUN_INJ_SNT1_55      J_TEE_SNT1_55        1.00     2.469
  J_TEE_SNT2_55_CNT37_StubJ_TEE_SNT1_55  J_CNT37_Stub         1.00     2.469
  J_CNT37_Stub_CNT37_90J_CNT37_Stub   J_CNT37             90.00     1.029
  J_CNT37_90_V5_STUBJ_CNT37_90     J_V5_IN_55           1.00     1.029
  J_SNT2_55_105  J_SNT2_55      J_TEE_SNT2_105      50.00     2.469
  J_TEE_SNT2_105_CNT38_StubJ_TEE_SNT1_105 J_CNT38_Stub         1.00     2.469
  J_CNT38_Stub_CNT38_90J_CNT38_Stub   J_CNT38             90.00     1.029
  J_CNT38_105_V6_STUBJ_CNT38        J_V6_IN_105          1.00     1.029
  J_TEE_SNT2_105_185J_TEE_SNT2_105 J_TEE_SNT2_185      80.00     2.469
  J_TEE_SNT2_185_V7_STUBJ_TEE_SNT2_185 J_V7_IN_185          1.00     2.469
  J_SNT2_V7_OUT_185_210J_V7_OUT_185   J_SNT2_210          25.00     2.469
  J_SNT2_V8_IN_210J_SNT2_210     J_V8_IN_210          1.00     2.469
  J_TEE_SNT2_V8_OUT_210_211J_TEE_SNT2_210 J_TEE_SNT2_211       1.00     2.469
  J_TEE_SNT2_211_CNT39_StubJ_TEE_SNT2_211 J_CNT39_Stub         1.00     2.469
  J_CNT39_Stub_CNT39_150J_CNT39_Stub   J_CNT39            150.00     1.029
  J_TEE_SNT2_211_240J_TEE_SNT2_211 J_TEE_SNT2_240      29.00     2.469
  J_TEE_SNT2_240_CNT40_StubJ_TEE_SNT2_240 J_CNT40_Stub         1.00     1.029
  J_CNT40_Stub_CNT40_100J_CNT40_Stub   J_CNT40            100.00     1.029
  J_TEE_CNT40_100_RUN_INJ_TEE_CNT40_100J_CNT41_Stub         1.00     2.469
  J_TEE_CNT40_100_CNT41_StubJ_TEE_CNT40_100J_CNT41_Stub         1.00     1.029
  J_CNT41_Stub_CNT41_150J_CNT41_Stub   J_CNT41            150.00     1.029
  J_CNT41_250_V9_STUBJ_CNT41        J_V9_IN_185          1.00     1.029
  J_TEE_SNT2_240_265J_TEE_SNT2_240 J_TEE_SNT2_265      25.00     2.469
  J_TEE_SNT2_265_RUN_INJ_SNT2_265     J_TEE_SNT2_265       1.00     2.469
  J_TEE_SNT2_265_CNT42_StubJ_TEE_SNT2_265 J_CNT42_Stub         1.00     2.469
  J_CNT42_Stub_CNT42_150J_CNT42_Stub   J_CNT42            150.00     1.029
  J_TEE_SNT2_265_300J_TEE_SNT2_265 J_TEE_SNT2_300      35.00     2.469
  J_SNT2_300_RUN_INJ_SNT2_300     J_TEE_SNT2_300       1.00     2.469
  J_TEE_SNT2_300_CNT43_StubJ_TEE_SNT2_300 J_CNT43_Stub         1.00     2.469
  J_CNT43_Stub_CNT43_150J_CNT43_Stub   J_CNT43            150.00     1.029
  J_TEE_SNT2_300_365J_TEE_SNT2_300 J_TEE_SNT2_365      65.00     2.469


  Page 5         Los Botines Vaquero Village - Water Distribution System
  Link - Node Table: (continued)
  ----------------------------------------------------------------------
  Link           Start          End                Length  Diameter
  ID             Node           Node                   ft        in
  ----------------------------------------------------------------------
  J_TEE_SNT2_365_RUN_INJ_SNT2_365     J_TEE_SNT2_365       1.00     2.469
  J_TEE_SNT2_CNT44_Stub_365J_TEE_SNT2_365 J_CNT44_Stub         1.00     2.469
  J_CNT44_Stub_CNT44_365J_CNT44_Stub   J_CNT44            150.00     1.029
  J_TEE_SNT2_365_390J_TEE_SNT2_365 J_TEE_SNT2_390      25.00     2.469
  J_TEE_SNT2_390_RUN_INJ_SNT2_390     J_TEE_SNT2_390       1.00     2.469
  J_TEE_SNT2_CNT45_Stub_390J_TEE_SNT2_390 J_CNT45_Stub         1.00     2.469
  J_CNT45_Stub_CNT45_390J_CNT45_Stub   J_CNT45            150.00     1.029
  J_TEE_SNT2_390_415J_TEE_SNT2_390 J_TEE_SNT2_415      25.00     2.469
  J_TEE_SNT2_415_RUN_INJ_SNT2_415     J_TEE_SNT2_415       1.00     2.469
  J_TEE_SNT2_415_CNT46_Stub_415J_TEE_SNT2_415 J_CNT46_Stub         1.00     2.469
  J_CNT46_Stub_CNT46_415J_CNT46_Stub   J_CNT46            150.00     1.029
  J_TEE_SNT2_415_440J_TEE_SNT2__415J_TEE_SNT2_440      25.00     2.469
  J_TEE_SNT2_CNT47_StubJ_TEE_SNT2_440 J_CNT47_Stub         1.00     2.469
  J_CNT47_Stub_CNT47_440J_CNT47_Stub   J_CNT47            150.00     1.029
  J_TEE_SNT2_440_505J_TEE_SNT2_440 J_TEE_SNT2_505      65.00     2.469
  J_TEE_SNT2_505_RUN_INJ_SNT2_505     J_TEE_SNT2_505       1.00     2.469
  J_TEE_SNT2_505_CNT48_StubJ_TEE_SNT2_505 J_CNT48_Stub         1.00     2.469
  J_CNT48_Stub_CNT48_505J_CNT48_Stub   J_CNT48            150.00     1.029
  J_TEE_SNT2_505_535J_TEE_SNT2_505 J_TEE_SNT2_535      35.00     2.469
  J_TEE_SNT2_535_RUN_INJ_SNT2_535     J_TEE_SNT2_535       1.00     2.469
  J_TEE_SNT2_535_CNT49_StubJ_TEE_SNT2_535 J_CNT49_Stub         1.00     2.469
  J_CNT49_Stub_CNT48_535J_CNT49_Stub   J_CNT49            150.00     1.029
  J_TEE_SNT2_535_580J_TEE_SNT2_535 J_TEE_SNT2_580      45.00     2.469
  J_TEE_SNT2_580_RUN_INJ_SNT2_580     J_TEE_SNT2_580       1.00     2.469
  J_TEE_SNT2_580_CNT50_StubJ_TEE_SNT2_580 J_CNT50_Stub         1.00     2.469
  J_CNT50_Stub_CNT50_580J_CNT50_Stub   J_CNT50            150.00     1.029
  J_TEE_SNT2_580_625J_TEE_SNT2_580 J_TEE_SNT2_625      45.00     2.469
  J_TEE_SNT2_625_RUN_INJ_SNT2_625     J_TEE_SNT2_625       1.00     2.469
  J_TEE_SNT2_625_CNT51_StubJ_TEE_SNT2_625 J_CNT51_Stub         1.00     2.469
  J_CNT51_Stub_CNT51_625J_CNT51_Stub   J_CNT51            150.00     1.029
  J_TEE_SNT2_625_670J_TEE_SNT2_625 J_TEE_SNT2_670      45.00     2.469
  J_TEE_SNT2_670_RUN_INJ_SNT2_670     J_TEE_SNT2_670       1.00     2.469
  J_TEE_SNT2_670_CNT52_StubJ_TEE_SNT2_670 J_CNT52_Stub         1.00     2.469
  J_CNT52_Stub_CNT52_670J_CNT52_Stub   J_CNT52            150.00     1.029
  J_TEE_SNT2_670_715J_TEE_SNT2_670 J_TEE_SNT2_715      45.00     2.469
  J_TEE_SNT2_715_RUN_INJ_SNT2_715     J_TEE_SNT2_715       1.00     2.469
  J_TEE_SNT2_715_CNT53_StubJ_TEE_SNT2_715 J_CNT53_Stub         1.00     2.469
  J_CNT53_Stub_715_CNT53_715J_CNT53_Stub   J_CNT53            150.00     1.029
  J_TEE_SNT2_715_840J_TEE_SNT2_715 J_SNT2_V10_IN_840    125.00     2.469
  J_SNT2_V10_IN_840J_V10_IN_840   J_V10_OUT_840        1.00     2.469
  J_TEE_SNT2_V10_OUT_840_845J_V10_OUT_840  J_TEE_SNT2_845       5.00     2.469
  J_TEE_SNT2_845_RUN_INJ_SNT2_845     J_TEE_SNT3_845_Stub      1.00     2.469
  J_TEE_SNT2_845_SNT3_StubJ_TEE_SNT2_845 J_SNT3_Stub_75       1.00     2.469
  J_SNT3_Stub_SNT3_75J_SNT3_Stub_75 J_SNT3_75           75.00     2.469
  J_TEE_SNT3_75_RUN_INJ_SNT3_75      J_TEE_SNT3_75        1.00     2.469
  J_TEE_SNT3_75_CNT54_StubJ_TEE_SNT3_75  J_CNT54_Stub         1.00     2.469
  J_CNT54_Stub_75_CNT54_75J_CNT54_Stub   J_CNT54             15.00     1.029


  Page 6         Los Botines Vaquero Village - Water Distribution System
  Link - Node Table: (continued)
  ----------------------------------------------------------------------
  Link           Start          End                Length  Diameter
  ID             Node           Node                   ft        in
  ----------------------------------------------------------------------
  J_TEE_SNT3_75_130J_TEE_SNT3_75  J_TEE_SNT3_130      55.00     2.469
  J_TEE_SNT3_130_RUN_INJ_SNT3_130     J_TEE_SNT3_130       1.00     2.469
  J_TEE_SNT3_130_CNT55_StubJ_TEE_SNT3_130 J_CNT55_Stub         1.00     2.469
  J_CNT55_Stub_130_CNT54_55J_CNT55_Stub   J_CNT55             15.00     1.029
  J_TEE_SNT3_130_185J_TEE_SNT3_130 J_TEE_SNT3_185      55.00     2.469
  J_TEE_SNT3_185_RUN_INJ_SNT3_185     J_TEE_SNT3_185       1.00     2.469
  J_TEE_SNT3_185_CNT56_StubJ_TEE_SNT3_185 J_CNT56_Stub         1.00     2.469
  J_CNT56_Stub_185_CNT56_185J_CNT56_Stub   J_CNT56             15.00     1.029
  J_TEE_SNT3_185_240J_SNT3_185     J_TEE_SNT3_240      55.00     2.469
  J_TEE_SNT3_240_RUN_INJ_SNT3_240     J_TEE_SNT3_240       1.00     2.469
  J_SNT3_240_CNT57_StubJ_TEE_SNT3_240 J_CNT57_Stub         1.00     2.469
  J_CNT57_Stub_CNT57_240J_CNT57_Stub   J_CNT57             15.00     1.029
  J_TEE_SNT3_240_295J_SNT3_240     J_TEE_SNT3_295      55.00     2.469
  J_TEE_SNT3_295_RUN_INJ_SNT3_295     J_TEE_SNT3_295       1.00     2.469
  J_TEE_SNT3_295_CNT58_StubJ_TEE_SNT3_295 J_CNT58_Stub         1.00     2.469
  J_CNT58_Stub_CNT58_295J_CNT58_Stub   J_CNT58             15.00     1.029
  J_TEE_SNT2_845_850J_TEE_SNT2_845 J_TEE_SNT2_855      10.00     2.469
  J_TEE_SNT2_855_RUN_INJ_SNT2_855     J_TEE_SNT2_855       1.00     2.469
  J_TEE_SNT2_855_CNT59_StubJ_TEE_SNT2_855 J_CNT59_Stub         1.00     2.469
  J_CNT59_Stub_CNT59_855J_CNT59_Stub   J_CNT59             15.00     1.029
  J_TEE_SNT2_855_875J_SNT2_855     J_TEE_SNT2_875      20.00     2.469
  J_TEE_SNT2_875_CNT60_StubJ_TEE_SNT2_875 J_CNT60_Stub         1.00     2.469
  J_CNT60_Stub_CNT60_875J_CNT60_Stub   J_CNT60             15.00     1.029
  J_SNT2_875_1050J_SNT2_875     J_SNT2_V11_IN_1050    175.00     2.469
  J_SNT2_V11_IN_1050_StubJ_SNT2_1050_StubJ_V11_IN_1050        1.00     2.469
  J_SNT2_V11_OUT_1050_1055J_V10_OUT_1050 J_TEE_SNT2_1055      5.00     2.469
  J_SNT2_1055_RUN_INJ_SNT2_1055    J_TEE_SNT4_Stub      1.00     2.469
  J_TEE_SNT2_1055_SNT4_StubJ_TEE_SNT2_1055J_SNT4_Stub_20       1.00     2.469
  J_SNT4_Stub_SNT4_20J_SNT4_Stub_20 J_SNT4_20           20.00     2.469
  J_TEE_SNT4_20_RUN_INJ_SNT4_20      J_TEE_SNT4_20        1.00     2.469
  J_TEE_SNT4_20_CNT61_StubJ_TEE_SNT4_20  J_CNT61_Stub         1.00     2.469
  J_TEE_SNT4_20_70J_SNT4_20      J_TEE_SNT4_70       50.00     2.469
  J_TEE_SNT4_70_CNT62_StubJ_TEE_SNT4_70  J_CNT62_Stub         1.00     2.469
  J_CNT62_Stub_CNT62_15J_CNT62_Stub   J_CNT62             15.00     1.029
  J_TEE_SNT4_70_120J_SNT4_70      J_TEE_SNT4_120      50.00     2.469
  J_TEE_SNT4_120_CNT63_StubJ_TEE_SNT4_120 J_CNT63_Stub         1.00     2.469
  J_CNT63_Stub_CNT63_120J_CNT63_Stub   J_CNT63             15.00     1.029
  J_TEE_SNT4_120_170J_SNT4_120     J_TEE_SNT4_170      50.00     2.469
  J_TEE_SNT4_170_CNT64_StubJ_TEE_SNT4_170 J_CNT64_Stub         1.00     2.469
  J_CNT64_Stub_CNT64_170J_CNT64_Stub   J_CNT64             15.00     1.029
  J_SNT2_1055_1170J_SNT2_1055    J_SNT2_V12_IN_1170    115.00     2.469
  J_SNT2_V12_IN_Stub_1170J_V12_IN_1170_StubJ_V12_IN_1170        1.00     2.469
  J_SNT2_V12_OUT_1170_1175J_V12_OUT_1170 J_SNT2_1175          5.00     2.469
  J_TEE_SNT2_1175_RUN_INJ_SNT2_1175    J_TEE_SNT5_1175_Stub      1.00     2.469
  J_TEE_SNT2_1175_SNT5_StubJ_SNT2_1175    J_SNT5_Stub_125      1.00     2.469
  J_SNT5_Stub_SNT5_125J_SNT5_Stub    J_SNT5_125         125.00     2.469
  J_TEE_SNT5_125_RUN_INJ_SNT5_125     J_TEE_SNT5_125       1.00     2.469


  Page 7         Los Botines Vaquero Village - Water Distribution System
  Link - Node Table: (continued)
  ----------------------------------------------------------------------
  Link           Start          End                Length  Diameter
  ID             Node           Node                   ft        in
  ----------------------------------------------------------------------
  J_TEE_SNT5_125_CNT65_StubJ_TEE_SNT5_125 J_CNT65_Stub         1.00     2.469
  J_CNT65_Stub_CNT65_125J_CNT65_Stub   J_CNT65             15.00     1.029
  J_TEE_SNT5_125_130J_SNT5_125     J_SNT5_BEND_IN_130      5.00     2.469
  J_SNT5_BEND_IN_130J_SNT5_130     J_SNT5_BEND_OUT_130      1.00     2.469
  J_SNT5_BEND_OUT_130J_SNT5_BEND_IN_130J_SNT5_BEND_OUT_130      1.00     2.469
  J_SNT5_BEND_OUT_130_145J_SNT5_BEND_OUT_130J_TEE_SNT5_145      15.00     2.469
  J_TEE_SNT5_145_RUN_INJ_SNT5_145     J_TEE_SNT5_145       1.00     2.469
  J_TEE_SNT5_145_CNT66_StubJ_TEE_SNT5_145 J_CNT66_Stub         1.00     2.469
  J_CNT66_Stub_CNT66_145J_CNT66_Stub   J_CNT66             15.00     1.029
  J_TEE_SNT5_145_165J_SNT5_145     J_TEE_SNT5_165      20.00     2.469
  J_TEE_SNT5_165_CNT67_StubJ_TEE_SNT5_165 J_CNT67_Stub         1.00     2.469
  J_CNT67_Stub_CNT67_165J_CNT67_Stub   J_CNT67             15.00     1.029
  J_TEE_SNT5_165_190J_SNT5_165     J_TEE_SNT5_190      25.00     2.469
  J_TEE_SNT5_190_CNT68_StubJ_TEE_SNT5_190 J_CNT68_Stub         1.00     2.469
  J_CNT68_Stub_CNT68_190J_CNT68_Stub   J_CNT68             15.00     1.029
  J_TEE_SNT5_190_260J_SNT5_190     J_TEE_SNT5_260      70.00     2.469
  J_TEE_SNT5_260_RUN_INJ_TEE_SNT5_260 J_TEE_OUT_           1.00     2.469
  J_TEE_SNT5_260_CNT69_StubJ_TEE_SNT5_260 J_CNT69_Stub         1.00     2.469
  J_CNT69_Stub_CNT69_260J_CNT69_Stub   J_CNT69             15.00     1.029
  J_TEE_SNT5__260_310J_SNT5_260     J_TEE_SNT5_310      50.00     2.469
  J_TEE_SNT5_310_CNT70_StubJ_TEE_SNT5_310 J_CNT70_Stub         1.00     2.469
  J_CNT70_Stub_CNT70_310J_CNT70_Stub   J_CNT70             15.00     1.029
  J_TEE_SNT5_310_325J_SNT5_310     J_TEE_SNT5_325      15.00     2.469
  J_TEE_SNT5_325_CNT71_StubJ_TEE_SNT5_325 J_CNT71_Stub         1.00     2.469
  J_CNT71_Stub_CNT71_325J_CNT71_Stub   J_CNT71             55.00     1.029
  J_TEE_SNT5_325_400J_SNT5_325     J_TEE_SNT5_400      75.00     2.469
  J_TEE_SNT5_400_CNT72_StubJ_TEE_SNT5_400 J_CNT72_Stub         1.00     2.469
  J_CNT72_Stub_CNT72_400J_CNT72_Stub   J_CNT72             15.00     1.029
  J_TEE_SNT5_400_415J_SNT5_400     J_TEE_SNT5_415      15.00     2.469
  J_TEE_SNT5_415_CNT73_StubJ_TEE_SNT5_415 J_CNT73_Stub         1.00     2.469
  J_CNT73_Stub_CNT73_415J_CNT73_Stub   J_CNT73             55.00     1.029
  J_TEE_SNT5_415_430J_SNT5_415     J_TEE_SNT5_430      15.00     2.469
  J_TEE_SNT5_430_RUN_INJ_TEE_SNT5_430 J_TEE_IN_430         1.00     2.469
  J_TEE_SNT5_430_CNT74_StubJ_TEE_SNT5_430 J_CNT74_Stub         1.00     2.469
  J_CNT74_Stub_CNT74_430J_CNT74_Stub   J_CNT74             90.00     1.029
  J_TEE_SNT5_430_495J_SNT5_430     J_TEE_SNT5_495      65.00     2.469
  J_TEE_SNT5_495_CNT75_StubJ_TEE_SNT5_495 J_CNT75_Stub         1.00     2.469
  J_CNT75_Stub_CNT75_495J_CNT75_Stub   J_CNT75             55.00     1.029
  J_TEE_SNT5_495_530J_SNT5_495     J_TEE_SNT5_530      35.00     2.469
  J_TEE_SNT5_530_CNT76_StubJ_TEE_SNT5_530 J_CNT76_Stub         1.00     2.469
  J_CNT76_Stub_CNT76_530J_CNT76_Stub   J_CNT76            100.00     1.029
  J_SNT5_530_565 J_SNT5_530     J_TEE_SNT5_565      35.00     2.469
  J_TEE_SNT5_565_CNT77_StubJ_TEE_SNT5_565 J_CNT77_Stub         1.00     2.469
  J_CNT77_Stub_CNT77_565J_CNT77_Stub   J_CNT77            100.00     1.029
  J_TEE_SNT5_565_620J_SNT5_565     J_TEE_SNT5_620      55.00     2.469
  J_TEE_SNT5_620_CNT78_StubJ_TEE_SNT5_620 J_CNT78_Stub         1.00     2.469
  J_CNT78_Stub_CNT78_620J_CNT78_Stub   J_CNT78             60.00     1.029


  Page 8         Los Botines Vaquero Village - Water Distribution System
  Link - Node Table: (continued)
  ----------------------------------------------------------------------
  Link           Start          End                Length  Diameter
  ID             Node           Node                   ft        in
  ----------------------------------------------------------------------
  J_TEE_SNT5_620_695J_SNT5_620     J_TEE_SNT5_695      75.00     2.469
  J_TEE_SNT5_695_RUN_INJ_TEE_SNT5_695 J_TEE_IN__695        1.00     2.469
  J_TEE_SNT5_695_CNT79_StubJ_TEE_SNT5_695 J_CNT79_Stub         1.00     2.469
  J_CNT79_Stub_CNT79_695J_CNT79_Stub   J_CNT80             40.00     1.029
  J_TEE_SNT5_695_770J_SNT5_695     J_TEE_SNT5_770      75.00     2.469
  J_SNT5_770_CNT80_StubJ_TEE_SNT5_770 J_CNT80_Stub         1.00     2.469
  J_CNT80_Stub_CNT80_770J_CNT80_Stub   J_CNT80             60.00     1.029
  J_TEE_SNT5_770_800J_SNT5_770     J_TEE_SNT5_800      30.00     2.469
  J_SNT5_770_CNT81_StubJ_TEE_SNT5_800 J_CNT81_Stub         1.00     2.469
  J_CNT81_Stub_CNT81_800J_CNT81_Stub   J_CNT81             20.00     1.029
  J_TEE_SNT2_1175_1190J_SNT5_1175    J_TEE_SNT2_1190     15.00     2.469
  J_TEE_SNT2_1190_CNT82_StubJ_TEE_SNT2_1190J_CNT82_Stub         1.00     2.469
  J_CNT82_Stub_CNT82_1190J_CNT82_Stub   J_CNT82             95.00     1.029
  J_TEE_SNT2_1190_1285J_SNT2_1190    J_TEE_SNT2_1285     95.00     2.469
  J_TEE_SNT2_1285_RUN_INJ_TEE_SNT2_1285J_TEE_SNT6_Stub      1.00     2.469
  J_TEE_SNT2_1285_SNT6_StubJ_TEE_SNT2_1285J_TEE_SNT6_Stub      1.00     2.469
  J_SNT6_Stub_SNT6_80J_TEE_SNT6_StubJ_SNT6              80.00     2.469
  J_SNT6_80_V13_IN_StubJ_SNT6_80      J_V13_IN_Stub_80      1.00     2.469
  J_TEE_SNT2_1285_1365J_SNT2_1285    J_TEE_SNT2_1385     80.00     2.469
  J_TEE_SNT2_1385_RUN_INJ_TEE_SNT2_1385J_TEE_SNT7_Stub      1.00     2.469
  J_TEE_SNT2_1365_StubJ_TEE_SNT2_1385J_TEE_SNT7_Stub      1.00     2.469
  J_SNT7_Stub_SNT7_190J_TEE_OUT_1365 J_SNT7_190         190.00     2.469
  J_SNT7_190_V14_IN_190_StubJ_SNT7_190     J_V14_IN_190         1.00     2.469
  J_TEE_SNT2_1365_1490J_SNT2_1385    J_SNT2_V15_IN_1490    125.00     2.469
  J_SNT2_V15_IN_1490_StubJ_SNT2_1490_StubJ_V15_IN             1.00     2.469
  J_TEE_IN_SNT1_525J_TEE_IN_SNT1_525J_TEE_OUT_CNT2_Stub_525      1.00     2.469
  J_TEE_OUT_CNT2_StubJ_TEE_IN_SNT1_525J_TEE_OUT_CNT2_Stub      1.00     2.469
  J_TEE_OUT_525_CNT2J_TEE_OUT_525  J_CNT2              40.00     1.029
  J_TEE_OUT_SNT1_525_580J_TEE_OUT_525  J_TEE_IN_SNT1_580     55.00     2.469
  J_TEE_SNT1_795_CNT7_StubJ_TEE_SNT1_795 J_CNT7_Stub             1     2.469
  FIX_J_SNT1_525_J_TEE_SNT1_525J_SNT1_525     J_TEE_SNT1_525       1.00     2.469
  FIX_J_SNT1_580_J_TEE_SNT1_580J_SNT1_580     J_TEE_SNT1_580       1.00     2.469
  FIX_001        J_SNT1_1264    J_TEE_SNT1_1264      1.00     2.469
  FIX_002        J_SNT1_445     J_TEE_SNT1_1445      1.00     2.469
  FIX_003        J_SNT1_2065    J_TEE_SNT1_2065      1.00     2.469
  FIX_004        J_SNT1_920     J_TEE_SNT1_920       1.00     2.469
  FIX_005        J_SNT1_1900    J_TEE_SNT1_1900      1.00     2.469
  FIX_006        J_SNT5_770     J_TEE_SNT5_770       1.00     2.469
  FIX_007        J_SNT1_1790    J_TEE_SNT1_1790      1.00     2.469
  FIX_008        J_SNT1_2080    J_TEE_SNT1_2080      1.00     2.469
  FIX_009        J_SNT1_1915    J_TEE_SNT1_1915      1.00     2.469
  FIX_010        J_SNT1_BEND_IN_690J_TEE_SNT1_690       1.00     2.469
  FIX_011        J_SNT5_190     J_TEE_SNT5_190       1.00     2.469
  FIX_012        J_SNT2_210     J_TEE_SNT2_210       1.00     2.469
  FIX_013        J_SNT5_415     J_TEE_SNT5_415       1.00     2.469
  FIX_014        J_SNT5_620     J_TEE_SNT5_620       1.00     2.469
  FIX_015        J_SNT1_1208    J_TEE_SNT1_1208      1.00     2.469


  Page 9         Los Botines Vaquero Village - Water Distribution System
  Link - Node Table: (continued)
  ----------------------------------------------------------------------
  Link           Start          End                Length  Diameter
  ID             Node           Node                   ft        in
  ----------------------------------------------------------------------
  FIX_016        J_SNT1_1570    J_TEE_SNT1_1570      1.00     2.469
  FIX_017        J_SNT2_875     J_TEE_SNT2_875       1.00     2.469
  FIX_018        J_SNT4_120     J_TEE_SNT4_120       1.00     2.469
  FIX_019        J_SNT2_Stub_55 J_TEE_SNT2_855       1.00     2.469
  FIX_020        J_SNT2_Stub_55 J_TEE_SNT2_1055      1.00     2.469
  FIX_021        J_SNT1_525     J_TEE_IN_SNT1_525      1.00     2.469
  FIX_022        J_SNT4_20      J_TEE_SNT4_120       1.00     2.469
  FIX_023        J_SNT1_1355    J_TEE_SNT1_1355      1.00     2.469
  FIX_024        J_SNT5_165     J_TEE_SNT5_165       1.00     2.469
  FIX_025        J_SNT2_1285    J_TEE_SNT2_1285      1.00     2.469
  FIX_026        J_SNT1_1415    J_TEE_SNT1_1415      1.00     2.469
  FIX_027        J_SNT1_1132    J_TEE_SNT1_1132      1.00     2.469
  FIX_028        J_SNT2_415     J_TEE_SNT2__415      1.00     2.469
  FIX_029        J_SNT2_1190    J_TEE_SNT2_1190      1.00     2.469
  FIX_030        J_SNT5_260     J_TEE_SNT5_260       1.00     2.469
  FIX_031        J_SNT1_1152    J_TEE_SNT1_1152      1.00     2.469
  FIX_032        J_SNT5_430     J_TEE_SNT5_430       1.00     2.469
  FIX_033        J_SNT1_1805    J_TEE_SNT1_1805      1.00     2.469
  FIX_034        J_SNT1_1475    J_TEE_SNT1_1475      1.00     2.469
  FIX_035        J_SNT5_325     J_TEE_SNT5_325       1.00     2.469
  FIX_036        J_SNT5_400     J_TEE_SNT5_400       1.00     2.469
  FIX_037        J_SNT1_2175    J_TEE_SNT1_2175      1.00     2.469
  FIX_038        J_SNT2_55      J_TEE_SNT2_55        1.00     2.469
  FIX_039        J_SNT1_1056    J_TEE_SNT1_1056      1.00     2.469
  FIX_040        J_SNT1_1340    J_TEE_SNT1_1340      1.00     2.469
  FIX_041        J_SNT5_530     J_TEE_SNT5_530       1.00     2.469
  FIX_042        J_SNT1_635     J_TEE_IN_SNT1_635      1.00     2.469
  FIX_043        J_SNT1_55      J_TEE_SNT1_2255      1.00     2.469
  FIX_044        J_SNT1_55      J_TEE_SNT1_1355      1.00     2.469
  FIX_045        J_SNT5_310     J_TEE_SNT5_310       1.00     2.469
  FIX_046        J_SNT2_1055    J_TEE_SNT2_1055      1.00     2.469
  FIX_047        J_SNT5_1175    J_TEE_SNT5_1175_Stub      1.00     2.469
  FIX_048        J_SNT5_495     J_TEE_SNT5_495       1.00     2.469
  FIX_049        J_SNT5_Stub_125J_TEE_SNT5_125       1.00     2.469
  FIX_050        J_SNT1_1460    J_TEE_SNT1_1460      1.00     2.469
  FIX_051        J_SNT1_740     J_TEE_SNT1_740       1.00     2.469
  FIX_052        J_SNT1_1000    J_TEE_SNT1_1000      1.00     2.469
  FIX_053        J_SNT2_845     J_TEE_SNT2_845       1.00     2.469
  FIX_054        J_SNT5_565     J_TEE_SNT5_565       1.00     2.469
  FIX_055        J_SNT1_1695    J_TEE_SNT1_1695      1.00     2.469
  FIX_056        J_SNT1_795     J_TEE_SNT1_795       1.00     2.469
  FIX_057        J_SNT1_1076    J_TEE_SNT1_1076      1.00     2.469
  FIX_058        J_SNT1_1284    J_TEE_SNT1_1284      1.00     2.469
  FIX_059        J_SNT2_1385    J_TEE_SNT2_1385      1.00     2.469
  FIX_060        J_SNT1_1400    J_TEE_SNT1_1400      1.00     2.469
  BRIDGE_001     J_TEE_SNT1_105 J_SNT1_160           1.00     2.469
  BRIDGE_002     J_TEE_SNT1_2255J_SNT1_V4_IN_2255      1.00     2.469


  Page 10        Los Botines Vaquero Village - Water Distribution System
  Link - Node Table: (continued)
  ----------------------------------------------------------------------
  Link           Start          End                Length  Diameter
  ID             Node           Node                   ft        in
  ----------------------------------------------------------------------
  BRIDGE_003     J_SNT2_1175    J_SNT2_V12_IN_1170      1.00     2.469
  BRIDGE_004     J_SNT1_700     J_SNT1_690           1.00     2.469
  BRIDGE_005     J_SNT2_1050_StubJ_SNT2_V11_IN_1050      1.00     2.469
  BRIDGE_006     J_TEE_SNT1_875 J_SNT1_V3_IN_875      1.00     2.469
  BRIDGE_007     J_SNT2_1490_StubJ_SNT2_V15_IN_1490      1.00     2.469
  FINAL_001      J_SNT6_80      J_TEE_SNT2_1285      1.00     2.469
  FINAL_002      J_SNT7_190     J_TEE_SNT2_1385      1.00     2.469
  FINAL_003      J_CNT37_90     J_TEE_SNT2_55        1.00     2.469
  FINAL_004      J_CNT41        J_TEE_SNT2_240       1.00     2.469
  VALVE_001      J_V5_IN_90     J_CNT37_90           1.00     2.469
  VALVE_002      J_V9_IN_105    J_CNT41              1.00     2.469
  VALVE_003      J_V13_IN_80    J_V13_IN_Stub_80      1.00     2.469
  VALVE_004      J_V14_IN       J_V14_IN_190         1.00     2.469
  FIX_360        J_SNT1_360     J_SNT1_V2_IN_360      1.00     2.469
  P_LOOP_V14_V15 J_V14_OUT      J_V15_IN           400.00     2.469
  P_LOOP_V13_SNT5J_V13_OUT_Stub J_SNT5_BEND_IN_130     75.00     2.469
  WELL_PUMP      RES1           T1                   #N/A      #N/A Pump
  BOOSTER_PUMP   M1             J_BP1_DIS            #N/A      #N/A Pump
  V1             J_V1_IN_160    J_V1_OUT_160         #N/A      2.47 Valve
  V2             J_V2_IN_360    J_V2_OUT_360         #N/A      2.47 Valve
  V3             J_V3_IN_875    J_V3_OUT_875         #N/A      2.47 Valve
  V4             J_V4_IN_2255   J_V4_OUT_2255        #N/A      2.47 Valve
  V5             J_V5_IN_90     J_V5_OUT_90          #N/A      1.03 Valve
  V6             J_V6_IN_105    J_V6_OUT_105         #N/A      1.03 Valve
  V7             J_V7_IN_185    J_V7_OUT_185         #N/A      2.47 Valve
  V8             J_V8_IN_210    J_V8_OUT_210         #N/A      2.47 Valve
  V9             J_V9_IN_105    J_V9_OUT_105         #N/A      1.03 Valve
  V10            J_V10_IN_840   J_V10_OUT_840        #N/A      2.47 Valve
  V11            J_V11_IN_1050  J_V11_OUT_1050       #N/A      2.47 Valve
  V12            J_V12_IN_1170  J_V12_OUT_1170       #N/A      2.47 Valve
  V13            J_V13_IN_80    J_V13_OUT_Stub       #N/A      2.47 Valve
  V14            J_V14_IN       J_V14_OUT            #N/A      2.47 Valve
  V15            J_V15_IN       J_V15_OUT            #N/A      2.47 Valve
  
  Energy Usage:
  ----------------------------------------------------------------------
                    Usage   Avg.     Kw-hr      Avg.      Peak      Cost
  Pump             Factor Effic.     /Mgal        Kw        Kw      /day
  ----------------------------------------------------------------------
  WELL_PUMP         57.11  75.00    146.36      0.40      0.66      0.00
  BOOSTER_PUMP     100.00  75.00    131.43      0.69      1.48      0.00
  ----------------------------------------------------------------------
                                                Demand Charge:      0.00
                                                Total Cost:         0.00
  


  Page 11        Los Botines Vaquero Village - Water Distribution System
  Node Results at 0:00 Hrs:
  ----------------------------------------------------------------------
  Node                Demand      Head  Pressure   Quality
  ID                     GPM        ft       psi          
  ----------------------------------------------------------------------
  J_SNT1_V2_IN_360       0.00-495904.00-214875.20      0.00
  J_SNT1_BEND_IN_690       0.00-991934.60-429805.30      0.00
  J_SNT1_V3_IN_875       0.00-991934.60-429805.30      0.00
  J_SNT1_V4_IN_2255       0.00-991948.10-429811.10      0.00
  J_SNT2_V10_IN_840       0.00    126.58     54.85      0.00
  J_SNT5_BEND_IN_130       0.00    128.12     55.51      0.00
  J_SNT5_BEND_OUT_130       0.00    128.11     55.51      0.00
  J_BP1_DIS             0.00    134.11     58.11      0.00
  J_SNT1_160            0.00    134.66     58.35      0.00
  J_V1_IN_160           0.00    134.59     58.32      0.00
  J_V1_OUT_160          0.00-495889.70-214869.00      0.00
  J_SNT1_360            0.00-495904.00-214875.20      0.00
  J_V2_IN_360           0.00-495904.00-214875.20      0.00
  J_V2_OUT_360          0.00-991928.30-429802.50      0.00
  J_SNT1_445            0.00-991934.30-429805.10      0.00
  J_TEE_SNT1_445        0.00-991934.30-429805.10      0.00
  J_CNT1_Stub           0.00-991934.30-429805.10      0.00
  J_CNT1                0.60-991934.30-429805.10      0.00
  J_TEE_SNT1_525        0.00-991934.40-429805.20      0.00
  J_CNT2_Stub           0.00-991934.40-429805.20      0.00
  J_CNT2                0.60-991934.40-429805.20      0.00
  J_SNT1_525            0.00-991934.40-429805.20      0.00
  J_TEE_SNT1_580        0.00-991934.50-429805.20      0.00
  J_CNT3_Stub           0.00-991934.50-429805.20      0.00
  J_CNT3                0.60-991934.50-429805.20      0.00
  J_SNT1_580            0.00-991934.50-429805.20      0.00
  J_TEE_SNT1_635        0.00-991934.60-429805.30      0.00
  J_TEE_IN_SNT1_635       0.00-991934.60-429805.30      0.00
  J_CNT4_Stub           0.00-991934.60-429805.30      0.00
  J_CNT4                0.60-991934.60-429805.30      0.00
  J_SNT1_635            0.00-991934.60-429805.30      0.00
  J_TEE_SNT1_690        0.00-991934.60-429805.30      0.00
  J_SNT1_690            0.00-991934.60-429805.30      0.00
  J_SNT1_BEND_OUT_690       0.00-991934.60-429805.30      0.00
  J_SNT1_BEND_OUT       0.00-991934.60-429805.30      0.00
  J_TEE_SNT1_700        0.00-991934.60-429805.30      0.00
  J_SNT1_700            0.00-991934.60-429805.30      0.00
  J_CNT5_Stub           0.00-991934.60-429805.30      0.00
  J_CNT5                0.60-991934.60-429805.30      0.00
  J_TEE_SNT1_740        0.00-991934.60-429805.30      0.00
  J_CNT6_Stub           0.00-991934.60-429805.30      0.00
  J_CNT6                0.60-991934.60-429805.30      0.00
  J_SNT1_740            0.00-991934.60-429805.30      0.00
  J_TEE_SNT1_795        0.00-991934.60-429805.30      0.00
  J_CNT7_Stub           0.00-991934.60-429805.30      0.00
  J_CNT7                0.60-991934.60-429805.30      0.00
  J_SNT1_795            0.00-991934.60-429805.30      0.00


  Page 12        Los Botines Vaquero Village - Water Distribution System
  Node Results at 0:00 Hrs: (continued)
  ----------------------------------------------------------------------
  Node                Demand      Head  Pressure   Quality
  ID                     GPM        ft       psi          
  ----------------------------------------------------------------------
  J_TEE_SNT1_875        0.00-991934.60-429805.30      0.00
  J_V2_IN_875           0.00-991934.60-429805.30      0.00
  J_V3_IN_875           0.00-991948.90-429811.50      0.00
  J_V3_OUT_875          0.00-991948.90-429811.50      0.00
  J_SNT1_920            0.00-991948.90-429811.50      0.00
  J_TEE_SNT1_920        0.00-991948.90-429811.50      0.00
  J_CNT8_Stub           0.00-991948.90-429811.50      0.00
  J_CNT8                0.60-991949.00-429811.50      0.00
  J_SNT1_1000           0.00-991948.90-429811.50      0.00
  J_TEE_SNT1_1000       0.00-991948.90-429811.50      0.00
  J_CNT9_Stub           0.00-991948.90-429811.50      0.00
  J_CNT9                0.60-991949.00-429811.50      0.00
  J_TEE_SNT1_1056       0.00-991948.90-429811.50      0.00
  J_CNT10_Stub          0.00-991948.90-429811.50      0.00
  J_CNT10               0.60-991949.00-429811.50      0.00
  J_SNT1_1056           0.00-991948.90-429811.50      0.00
  J_TEE_SNT1_1076       0.00-991948.90-429811.50      0.00
  J_CNT11_Stub          0.00-991948.90-429811.50      0.00
  J_CNT11               0.60-991949.00-429811.50      0.00
  J_SNT1_1076           0.00-991948.90-429811.50      0.00
  J_TEE_SNT1_1132       0.00-991948.90-429811.50      0.00
  J_CNT12_Stub          0.00-991948.90-429811.50      0.00
  J_CNT12               0.60-991948.90-429811.50      0.00
  J_SNT1_1132           0.00-991948.90-429811.50      0.00
  J_TEE_SNT1_1152       0.00-991948.80-429811.40      0.00
  J_CNT13_Stub          0.00-991948.80-429811.40      0.00
  J_CNT13               0.60-991948.90-429811.40      0.00
  J_SNT1_1152           0.00-991948.80-429811.40      0.00
  J_TEE_SNT1_1208       0.00-991948.80-429811.40      0.00
  J_CNT14_Stub          0.00-991948.80-429811.40      0.00
  J_CNT14               0.60-991948.80-429811.40      0.00
  J_SNT1_1208           0.00-991948.80-429811.40      0.00
  J_TEE_SNT1_1264       0.00-991948.60-429811.30      0.00
  J_CNT15_Stub          0.00-991948.60-429811.30      0.00
  J_CNT15               0.60-991948.60-429811.30      0.00
  J_SNT1_1264           0.00-991948.60-429811.30      0.00
  J_TEE_SNT1_1284       0.00-991948.50-429811.30      0.00
  J_CNT16_Stub          0.00-991948.50-429811.30      0.00
  J_CNT16               0.60-991948.60-429811.30      0.00
  J_SNT1_1284           0.00-991948.50-429811.30      0.00
  J_TEE_SNT1_1340       0.00-991948.30-429811.20      0.00
  J_CNT17_Stub          0.00-991948.30-429811.20      0.00
  J_CNT17               0.60-991948.30-429811.20      0.00
  J_SNT1_1340           0.00-991948.30-429811.20      0.00
  J_TEE_SNT1_1355       0.00-991948.20-429811.20      0.00
  J_CNT18_Stub          0.00-991948.20-429811.20      0.00
  J_CNT18               0.60-991948.30-429811.20      0.00


  Page 13        Los Botines Vaquero Village - Water Distribution System
  Node Results at 0:00 Hrs: (continued)
  ----------------------------------------------------------------------
  Node                Demand      Head  Pressure   Quality
  ID                     GPM        ft       psi          
  ----------------------------------------------------------------------
  J_SNT1_1355           0.00-991948.20-429811.20      0.00
  J_TEE_SNT1_1370       0.00-991948.20-429811.20      0.00
  J_CNT19_Stub          0.00-991948.20-429811.20      0.00
  J_CNT19               0.60-991948.30-429811.20      0.00
  J_SNT1_1385           0.00-991934.30-429805.10      0.00
  J_TEE_SNT1_1400       0.00-991934.30-429805.10      0.00
  J_CNT20_Stub          0.00-991948.20-429811.20      0.00
  J_CNT20               0.60-991948.30-429811.20      0.00
  J_SNT1_1400           0.00-991934.30-429805.10      0.00
  J_TEE_SNT1_1415       0.00-991934.30-429805.10      0.00
  J_CNT21_Stub          0.00-991934.30-429805.10      0.00
  J_CNT21               0.60-991934.40-429805.20      0.00
  J_SNT1_1415           0.00-991934.30-429805.10      0.00
  J_TEE_SNT1_1430       0.00-991934.30-429805.10      0.00
  J_CNT22_Stub          0.00-991934.30-429805.10      0.00
  J_CNT22               0.60-991934.40-429805.20      0.00
  J_TEE_SNT1_1445       0.00-991934.30-429805.10      0.00
  J_SNT1_1445           0.00-991934.40-429805.20      0.00
  J_CNT23_Stub          0.00-991934.30-429805.10      0.00
  J_CNT23               0.60-991934.40-429805.20      0.00
  J_TEE_SNT1_1460       0.00-991934.90-429805.40      0.00
  J_CNT24_Stub          0.00-991934.90-429805.40      0.00
  J_CNT24               0.60-991935.00-429805.40      0.00
  J_SNT1_1460           0.00-991935.00-429805.40      0.00
  J_TEE_SNT1_1475       0.00-991935.50-429805.70      0.00
  J_CNT25_Stub          0.00-991935.50-429805.70      0.00
  J_CNT25               0.60-991935.60-429805.70      0.00
  J_SNT1_1475           0.00-991935.60-429805.70      0.00
  J_TEE_SNT1_1570       0.00-991938.60-429807.00      0.00
  J_CNT26_Stub          0.00-991938.60-429807.00      0.00
  J_CNT26               0.60-991938.70-429807.00      0.00
  J_SNT1_1570           0.00-991938.70-429807.00      0.00
  J_TEE_SNT1_1585       0.00-991938.70-429807.00      0.00
  J_CNT27_Stub          0.00-991938.70-429807.00      0.00
  J_CNT27               0.60-991938.80-429807.10      0.00
  J_TEE_SNT1_1680       0.00-991938.70-429807.00      0.00
  J_CNT28_Stub          0.00-991938.70-429807.00      0.00
  J_CNT28               0.60-991938.80-429807.10      0.00
  J_TEE_SNT1_1695       0.00-991939.10-429807.20      0.00
  J_CNT29_Stub          0.00-991939.10-429807.20      0.00
  J_CNT29               0.60-991939.10-429807.20      0.00
  J_SNT1_1695           0.00-991939.10-429807.20      0.00
  J_TEE_SNT1_1790       0.00-991941.30-429808.20      0.00
  J_CNT30_Stub          0.00-991941.30-429808.20      0.00
  J_CNT30               0.60-991941.30-429808.20      0.00
  J_SNT1_1790           0.00-991941.30-429808.20      0.00
  J_TEE_SNT1_1805       0.00-991941.60-429808.30      0.00


  Page 14        Los Botines Vaquero Village - Water Distribution System
  Node Results at 0:00 Hrs: (continued)
  ----------------------------------------------------------------------
  Node                Demand      Head  Pressure   Quality
  ID                     GPM        ft       psi          
  ----------------------------------------------------------------------
  J_CNT31_Stub          0.00-991941.60-429808.30      0.00
  J_CNT31               0.60-991941.60-429808.30      0.00
  J_SNT1_1805           0.00-991941.60-429808.30      0.00
  J_TEE_SNT1_1900       0.00-991943.40-429809.10      0.00
  J_CNT32_Stub          0.00-991943.40-429809.10      0.00
  J_CNT32               0.60-991943.40-429809.10      0.00
  J_SNT1_1900           0.00-991943.40-429809.10      0.00
  J_TEE_SNT1_1915       0.00-991943.70-429809.20      0.00
  J_CNT33_Stub          0.00-991943.70-429809.20      0.00
  J_CNT33               0.60-991943.80-429809.20      0.00
  J_SNT1_1915           0.00-991943.70-429809.20      0.00
  J_TEE_SNT1_2065       0.00-991946.00-429810.20      0.00
  J_CNT34_Stub          0.00-991946.00-429810.20      0.00
  J_CNT34               0.60-991946.00-429810.20      0.00
  J_SNT1_2065           0.00-991946.00-429810.20      0.00
  J_TEE_SNT1_2080       0.00-991946.20-429810.30      0.00
  J_CNT35_Stub          0.00-991946.20-429810.30      0.00
  J_CNT35               0.60-991946.30-429810.30      0.00
  J_SNT1_2080           0.00-991946.20-429810.30      0.00
  J_TEE_SNT1_2175       0.00-991947.30-429810.80      0.00
  J_CNT36_Stub          0.00-991947.30-429810.80      0.00
  J_CNT36               0.60-991947.40-429810.80      0.00
  J_SNT1_2175           0.00-991947.30-429810.80      0.00
  J_TEE_SNT1_2255       0.00-991948.20-429811.20      0.00
  J_V4_IN_2255          0.00-991948.20-429811.20      0.00
  J_V4_OUT_2255         0.00-991948.20-429811.20      0.00
  J_SNT2_Stub_55        0.00    129.96     56.31      0.00
  J_TEE_SNT2_55         0.00    129.95     56.31      0.00
  J_SNT1_55             0.00-991948.20-429811.20      0.00
  J_TEE_SNT1_55         0.00-991948.20-429811.20      0.00
  J_CNT37_Stub          0.00-991948.20-429811.20      0.00
  J_CNT37               0.60-991948.20-429811.20      0.00
  J_CNT37_90            0.00    129.95     56.31      0.00
  J_V5_IN_55            0.00    129.95     56.31      0.00
  J_V5_IN_90            0.00    129.95     56.31      0.00
  J_V5_OUT_90           0.00    129.95     56.31      0.00
  J_SNT2_55             0.00    129.94     56.30      0.00
  J_TEE_SNT2_105        0.00    129.35     56.05      0.00
  J_TEE_SNT1_105        0.00    134.66     58.35      0.00
  J_CNT38_Stub          0.00    134.66     58.35      0.00
  J_CNT38               0.60    134.63     58.34      0.00
  J_V6_IN_105           0.00    134.63     58.34      0.00
  J_V6_OUT_105          0.00    134.63     58.34      0.00
  J_TEE_SNT2_185        0.00    128.41     55.64      0.00
  J_V7_IN_185           0.00    128.40     55.63      0.00
  J_V7_OUT_185          0.00    128.40     55.63      0.00
  J_SNT2_210            0.00    128.10     55.51      0.00


  Page 15        Los Botines Vaquero Village - Water Distribution System
  Node Results at 0:00 Hrs: (continued)
  ----------------------------------------------------------------------
  Node                Demand      Head  Pressure   Quality
  ID                     GPM        ft       psi          
  ----------------------------------------------------------------------
  J_V8_IN_210           0.00    128.10     55.51      0.00
  J_V8_OUT_210          0.00    128.10     55.51      0.00
  J_TEE_SNT2_210        0.00    128.09     55.50      0.00
  J_TEE_SNT2_211        0.00    128.08     55.50      0.00
  J_CNT39_Stub          0.00    128.08     55.50      0.00
  J_CNT39               0.60    128.03     55.48      0.00
  J_TEE_SNT2_240        0.00    127.78     55.37      0.00
  J_CNT40_Stub          0.00    127.78     55.37      0.00
  J_CNT40               0.60    127.75     55.35      0.00
  J_TEE_CNT40_100       0.00    127.78     55.37      0.00
  J_CNT41_Stub          0.00    127.78     55.37      0.00
  J_CNT41               0.60    127.78     55.37      0.00
  J_V9_IN_185           0.00    127.78     55.37      0.00
  J_V9_IN_105           0.00    127.78     55.37      0.00
  J_V9_OUT_105          0.00    127.78     55.37      0.00
  J_TEE_SNT2_265        0.00    127.60     55.29      0.00
  J_SNT2_265            0.00    127.60     55.29      0.00
  J_CNT42_Stub          0.00    127.60     55.29      0.00
  J_CNT42               0.60    127.54     55.26      0.00
  J_TEE_SNT2_300        0.00    127.37     55.19      0.00
  J_SNT2_300            0.00    127.37     55.19      0.00
  J_CNT43_Stub          0.00    127.37     55.19      0.00
  J_CNT43               0.60    127.32     55.17      0.00
  J_TEE_SNT2_365        0.00    127.03     55.04      0.00
  J_SNT2_365            0.00    127.03     55.04      0.00
  J_CNT44_Stub          0.00    127.03     55.04      0.00
  J_CNT44               0.60    126.98     55.02      0.00
  J_TEE_SNT2_390        0.00    126.93     55.00      0.00
  J_SNT2_390            0.00    126.93     55.00      0.00
  J_CNT45_Stub          0.00    126.93     55.00      0.00
  J_CNT45               0.60    126.88     54.98      0.00
  J_TEE_SNT2_415        0.00    126.84     54.96      0.00
  J_SNT2_415            0.00    126.84     54.96      0.00
  J_CNT46_Stub          0.00    126.84     54.96      0.00
  J_CNT46               0.60    126.79     54.94      0.00
  J_TEE_SNT2__415       0.00    126.84     54.96      0.00
  J_TEE_SNT2_440        0.00    126.77     54.93      0.00
  J_CNT47_Stub          0.00    126.77     54.93      0.00
  J_CNT47               0.60    126.72     54.91      0.00
  J_TEE_SNT2_505        0.00    126.65     54.88      0.00
  J_SNT2_505            0.00    126.65     54.88      0.00
  J_CNT48_Stub          0.00    126.65     54.88      0.00
  J_CNT48               0.60    126.60     54.86      0.00
  J_TEE_SNT2_535        0.00    126.61     54.86      0.00
  J_SNT2_535            0.00    126.61     54.86      0.00
  J_CNT49_Stub          0.00    126.61     54.86      0.00
  J_CNT49               0.60    126.55     54.84      0.00


  Page 16        Los Botines Vaquero Village - Water Distribution System
  Node Results at 0:00 Hrs: (continued)
  ----------------------------------------------------------------------
  Node                Demand      Head  Pressure   Quality
  ID                     GPM        ft       psi          
  ----------------------------------------------------------------------
  J_TEE_SNT2_580        0.00    126.58     54.85      0.00
  J_SNT2_580            0.00    126.58     54.85      0.00
  J_CNT50_Stub          0.00    126.58     54.85      0.00
  J_CNT50               0.60    126.53     54.83      0.00
  J_TEE_SNT2_625        0.00    126.58     54.85      0.00
  J_SNT2_625            0.00    126.58     54.85      0.00
  J_CNT51_Stub          0.00    126.58     54.85      0.00
  J_CNT51               0.60    126.53     54.83      0.00
  J_TEE_SNT2_670        0.00    126.58     54.85      0.00
  J_SNT2_670            0.00    126.58     54.85      0.00
  J_CNT52_Stub          0.00    126.58     54.85      0.00
  J_CNT52               0.60    126.53     54.83      0.00
  J_TEE_SNT2_715        0.00    126.58     54.85      0.00
  J_SNT2_715            0.00    126.58     54.85      0.00
  J_CNT53_Stub          0.00    126.58     54.85      0.00
  J_CNT53               0.60    126.53     54.83      0.00
  J_V10_IN_840          0.00    129.95     56.31      0.00
  J_V10_OUT_840         0.00    129.95     56.31      0.00
  J_TEE_SNT2_845        0.00    129.95     56.31      0.00
  J_SNT2_845            0.00    129.95     56.31      0.00
  J_TEE_SNT3_845_Stub       0.00    129.95     56.31      0.00
  J_SNT3_Stub_75        0.00    129.94     56.30      0.00
  J_SNT3_75             0.00    129.85     56.26      0.00
  J_TEE_SNT3_75         0.00    129.85     56.26      0.00
  J_CNT54_Stub          0.00    129.85     56.26      0.00
  J_CNT54               0.60    129.84     56.26      0.00
  J_TEE_SNT3_130        0.00    129.82     56.25      0.00
  J_SNT3_130            0.00    129.82     56.25      0.00
  J_CNT55_Stub          0.00    129.82     56.25      0.00
  J_CNT55               0.60    129.82     56.25      0.00
  J_TEE_SNT3_185        0.00    129.82     56.25      0.00
  J_SNT3_185            0.00    129.82     56.25      0.00
  J_CNT56_Stub          0.00    129.82     56.25      0.00
  J_CNT56               0.60    129.81     56.25      0.00
  J_TEE_SNT3_240        0.00    129.82     56.25      0.00
  J_SNT3_240            0.00    129.82     56.25      0.00
  J_CNT57_Stub          0.00    129.82     56.25      0.00
  J_CNT57               0.60    129.81     56.25      0.00
  J_TEE_SNT3_295        0.00    129.82     56.25      0.00
  J_SNT3_295            0.00    129.82     56.25      0.00
  J_CNT58_Stub          0.00    129.82     56.25      0.00
  J_CNT58               0.60    129.81     56.25      0.00
  J_TEE_SNT2_855        0.00    129.96     56.31      0.00
  J_SNT2_855            0.00    129.96     56.31      0.00
  J_CNT59_Stub          0.00    129.96     56.31      0.00
  J_CNT59               0.60    129.95     56.31      0.00
  J_TEE_SNT2_875        0.00    129.96     56.31      0.00


  Page 17        Los Botines Vaquero Village - Water Distribution System
  Node Results at 0:00 Hrs: (continued)
  ----------------------------------------------------------------------
  Node                Demand      Head  Pressure   Quality
  ID                     GPM        ft       psi          
  ----------------------------------------------------------------------
  J_CNT60_Stub          0.00    129.96     56.31      0.00
  J_CNT60               0.60    129.95     56.31      0.00
  J_SNT2_875            0.00    129.96     56.31      0.00
  J_SNT2_V11_IN_1050       0.00    129.96     56.31      0.00
  J_SNT2_1050_Stub       0.00    129.96     56.31      0.00
  J_V11_IN_1050         0.00    129.96     56.31      0.00
  J_V11_OUT_1050        0.00    129.96     56.31      0.00
  J_V10_OUT_1050        0.00    129.94     56.30      0.00
  J_TEE_SNT2_1055       0.00    129.94     56.30      0.00
  J_SNT2_1055           0.00    129.92     56.30      0.00
  J_TEE_SNT4_Stub       0.00    129.92     56.30      0.00
  J_SNT4_Stub_20        0.00    129.94     56.30      0.00
  J_SNT4_20             0.00    129.94     56.30      0.00
  J_TEE_SNT4_20         0.00    129.94     56.30      0.00
  J_CNT61_Stub          0.00    129.94     56.30      0.00
  J_TEE_SNT4_70         0.00    129.94     56.30      0.00
  J_CNT62_Stub          0.00    129.94     56.30      0.00
  J_CNT62               0.60    129.93     56.30      0.00
  J_SNT4_70             0.00    129.94     56.30      0.00
  J_TEE_SNT4_120        0.00    129.94     56.30      0.00
  J_CNT63_Stub          0.00    129.94     56.30      0.00
  J_CNT63               0.60    129.93     56.30      0.00
  J_SNT4_120            0.00    129.94     56.30      0.00
  J_TEE_SNT4_170        0.00    129.94     56.30      0.00
  J_CNT64_Stub          0.00    129.94     56.30      0.00
  J_CNT64               0.60    129.93     56.30      0.00
  J_SNT2_V12_IN_1170       0.00    128.19     55.55      0.00
  J_V12_IN_1170_Stub       0.00    128.18     55.54      0.00
  J_V12_IN_1170         0.00    128.18     55.54      0.00
  J_V12_OUT_1170        0.00    128.18     55.54      0.00
  J_SNT2_1175           0.00    128.18     55.54      0.00
  J_TEE_SNT5_1175_Stub       0.00    128.18     55.54      0.00
  J_SNT5_Stub_125       0.00    128.17     55.54      0.00
  J_SNT5_Stub           0.00    128.15     55.53      0.00
  J_SNT5_125            0.00    128.15     55.53      0.00
  J_TEE_SNT5_125        0.00    128.16     55.53      0.00
  J_CNT65_Stub          0.00    128.16     55.53      0.00
  J_CNT65               0.60    128.15     55.53      0.00
  J_SNT5_130            0.00    128.11     55.51      0.00
  J_TEE_SNT5_145        0.00    127.93     55.43      0.00
  J_SNT5_145            0.00    127.92     55.43      0.00
  J_CNT66_Stub          0.00    127.93     55.43      0.00
  J_CNT66               0.60    127.93     55.43      0.00
  J_TEE_SNT5_165        0.00    127.72     55.34      0.00
  J_CNT67_Stub          0.00    127.72     55.34      0.00
  J_CNT67               0.60    127.71     55.34      0.00
  J_SNT5_165            0.00    127.71     55.34      0.00


  Page 18        Los Botines Vaquero Village - Water Distribution System
  Node Results at 0:00 Hrs: (continued)
  ----------------------------------------------------------------------
  Node                Demand      Head  Pressure   Quality
  ID                     GPM        ft       psi          
  ----------------------------------------------------------------------
  J_TEE_SNT5_190        0.00    127.49     55.24      0.00
  J_CNT68_Stub          0.00    127.49     55.24      0.00
  J_CNT68               0.60    127.48     55.24      0.00
  J_SNT5_190            0.00    127.48     55.24      0.00
  J_TEE_SNT5_260        0.00    126.95     55.01      0.00
  J_TEE_OUT_            0.00    126.95     55.01      0.00
  J_CNT69_Stub          0.00    126.95     55.01      0.00
  J_CNT69               0.60    126.95     55.01      0.00
  J_SNT5_260            0.00    126.95     55.01      0.00
  J_TEE_SNT5_310        0.00    126.63     54.87      0.00
  J_CNT70_Stub          0.00    126.63     54.87      0.00
  J_CNT70               0.60    126.62     54.87      0.00
  J_SNT5_310            0.00    126.62     54.87      0.00
  J_TEE_SNT5_325        0.00    126.54     54.83      0.00
  J_CNT71_Stub          0.00    126.54     54.83      0.00
  J_CNT71               0.60    126.53     54.82      0.00
  J_SNT5_325            0.00    126.54     54.83      0.00
  J_TEE_SNT5_400        0.00    126.22     54.69      0.00
  J_CNT72_Stub          0.00    126.22     54.69      0.00
  J_CNT72               0.60    126.22     54.69      0.00
  J_SNT5_400            0.00    126.22     54.69      0.00
  J_TEE_SNT5_415        0.00    126.17     54.67      0.00
  J_CNT73_Stub          0.00    126.17     54.67      0.00
  J_CNT73               0.60    126.15     54.66      0.00
  J_SNT5_415            0.00    126.17     54.67      0.00
  J_TEE_SNT5_430        0.00    126.13     54.65      0.00
  J_TEE_IN_430          0.00    126.13     54.65      0.00
  J_CNT74_Stub          0.00    126.13     54.65      0.00
  J_CNT74               0.60    126.10     54.64      0.00
  J_SNT5_430            0.00    126.12     54.65      0.00
  J_TEE_SNT5_495        0.00    126.00     54.60      0.00
  J_CNT75_Stub          0.00    126.00     54.60      0.00
  J_CNT75               0.60    125.98     54.59      0.00
  J_SNT5_495            0.00    126.00     54.60      0.00
  J_TEE_SNT5_530        0.00    125.96     54.58      0.00
  J_CNT76_Stub          0.00    125.96     54.58      0.00
  J_CNT76               0.60    125.92     54.56      0.00
  J_SNT5_530            0.00    125.96     54.58      0.00
  J_TEE_SNT5_565        0.00    125.94     54.57      0.00
  J_CNT77_Stub          0.00    125.94     54.57      0.00
  J_CNT77               0.60    125.90     54.55      0.00
  J_SNT5_565            0.00    125.94     54.57      0.00
  J_TEE_SNT5_620        0.00    125.94     54.57      0.00
  J_CNT78_Stub          0.00    125.94     54.57      0.00
  J_CNT78               0.60    125.92     54.56      0.00
  J_SNT5_620            0.00    125.94     54.57      0.00
  J_TEE_SNT5_695        0.00    125.93     54.57      0.00


  Page 19        Los Botines Vaquero Village - Water Distribution System
  Node Results at 0:00 Hrs: (continued)
  ----------------------------------------------------------------------
  Node                Demand      Head  Pressure   Quality
  ID                     GPM        ft       psi          
  ----------------------------------------------------------------------
  J_TEE_IN__695         0.00    125.93     54.57      0.00
  J_CNT79_Stub          0.00    125.93     54.57      0.00
  J_CNT80               0.60    123.56     53.54      0.00
  J_SNT5_695            0.00    123.54     53.53      0.00
  J_TEE_SNT5_770        0.00    123.54     53.53      0.00
  J_CNT80_Stub          0.00    123.54     53.53      0.00
  J_SNT5_770            0.00    123.54     53.53      0.00
  J_TEE_SNT5_800        0.00    123.54     53.53      0.00
  J_CNT81_Stub          0.00    123.54     53.53      0.00
  J_CNT81               0.60    123.53     53.53      0.00
  J_SNT5_1175           0.00    128.17     55.54      0.00
  J_TEE_SNT2_1190       0.00    128.16     55.53      0.00
  J_CNT82_Stub          0.00    128.16     55.53      0.00
  J_CNT82               0.60    128.13     55.52      0.00
  J_SNT2_1190           0.00    128.16     55.53      0.00
  J_TEE_SNT2_1285       0.00    128.14     55.52      0.00
  J_TEE_SNT6_Stub       0.00    128.14     55.52      0.00
  J_SNT6                0.00    128.14     55.52      0.00
  J_SNT6_80             0.00    128.14     55.52      0.00
  J_V13_IN_Stub_80       0.00    128.14     55.52      0.00
  J_V13_IN_80           0.00    128.14     55.52      0.00
  J_V13_OUT_Stub        0.00    128.14     55.52      0.00
  J_SNT2_1285           0.00    128.14     55.52      0.00
  J_TEE_SNT2_1385       0.00    128.14     55.52      0.00
  J_TEE_SNT7_Stub       0.00    128.14     55.52      0.00
  J_TEE_OUT_1365        0.00    128.14     55.52      0.00
  J_SNT7_190            0.00    128.14     55.52      0.00
  J_V14_IN_190          0.00    128.14     55.52      0.00
  J_V14_IN              0.00    128.14     55.52      0.00
  J_V14_OUT             0.00    128.14     55.52      0.00
  J_SNT2_1385           0.00    128.14     55.52      0.00
  J_SNT2_V15_IN_1490       0.00    128.14     55.52      0.00
  J_SNT2_1490_Stub       0.00    128.14     55.52      0.00
  J_V15_IN              0.00    128.14     55.52      0.00
  J_V15_OUT             0.00    128.14     55.52      0.00
  J_TEE_IN_SNT1_525       0.00-991934.40-429805.20      0.00
  J_TEE_OUT_CNT2_Stub_525       0.00-991934.40-429805.20      0.00
  J_TEE_OUT_CNT2_Stub       0.00-991934.40-429805.20      0.00
  J_TEE_OUT_525         0.00-991934.40-429805.20      0.00
  J_TEE_IN_SNT1_580       0.00-991934.40-429805.20      0.00
  RES1                  0.00    138.60      0.00      0.00 Reservoir
  T1                 -158.18    138.60     60.06      0.00 Tank
  M1                  -58.92    135.00     58.50      0.00 Tank
  J_T1_SUC              0.00    130.00     56.33      0.00 Tank
  J_BP1_SUC           169.07    130.00     56.33      0.00 Tank
  


  Page 20        Los Botines Vaquero Village - Water Distribution System
  Link Results at 0:00 Hrs:
  ----------------------------------------------------------------------
  Link                  Flow  VelocityUnit Headloss    Status
  ID                     GPM       fps    ft/Kft
  ----------------------------------------------------------------------
  J_T1_M1             158.18     10.60   3600.01      Open
  J_T1_SUC              0.00      0.00      0.00      Open
  J_BP1              -169.07     11.33   4113.01      Open
  J_BP1_DIS_M1        -78.49      5.26    886.99      Open
  J_M1_SNT1_160        22.83      0.46      2.09      Open
  J_SNT1_V1_IN_160      22.23      1.49     71.30      Open
  J_SNT1_V1_OUT_160_360      22.23      1.49     71.41      Open
  P_SNT1_V2_360        22.23      0.45      0.00      Open
  J_SNT1_V2_OUT_360_445      22.23      1.49     71.32      Open
  J_TEE_SNT1_445_RUN_IN       0.60      0.04      0.00      Open
  J_TEE_SNT1_445_CNT1_stub       0.60      0.04      0.00      Open
  J_CNT1_Stub_CNT39_15       0.60      0.23      0.00      Open
  J_TEE_SNT1_445_525       3.60      0.24      1.56      Open
  J_TEE_SNT1_525_CNT2_Stub       0.60      0.04      0.00      Open
  J_CNT2_Stub_CNT2_40       0.60      0.23      0.00      Open
  J_TEE_SNT1_525_580       3.00      0.20      1.14      Open
  J_TEE_SNT1_580_CNT3_Stub       0.60      0.04      0.00      Open
  J_CNT3_Stub_CNT3_40       0.60      0.23      0.00      Open
  J_TEE_SNT1_580_635       2.40      0.16      1.14      Open
  J_TEE_SNT1_635_RUN_IN       1.80      0.12      0.00      Open
  J_TEE_SNT1_635_CNT4_Stub       0.60      0.04      0.00      Open
  J_CNT4_Stub_CNT4_40       0.60      0.23      0.00      Open
  J_TEE_SNT1_635_690       1.80      0.12      0.00      Open
  J_SNT1_BEND_IN_690      -1.80      0.12      0.00      Open
  J_SNT1_BEND_IN_BEND_OUT_690       0.00      0.00      0.00      Open
  J_SNT1_BEND_OUT_680_700       0.00      0.00      0.00      Open
  J_TEE_SNT1_700_RUN_IN       0.60      0.04      0.00      Open
  J_TEE_SNT1_700_CNT5_STUB       0.60      0.04      0.00      Open
  J_CNT5_Stub_CNT5_15       0.60      0.23      0.00      Open
  J_TEE_SNT1_700_740       1.20      0.08      0.00      Open
  J_TEE_SNT1_740_CNT6_Stub       0.60      0.04      0.00      Open
  J_CNT6_Stub_CNT6_105       0.60      0.23      0.00      Open
  J_TEE_SNT1_740_795       0.60      0.04      0.00      Open
  J_CNT7_Stub_CNT7_40       0.60      0.23      0.00      Open
  J_TEE_SNT1_795_875       0.00      0.00      0.00      Open
  J_SNT1_V3_IN_875       0.00      0.00      0.00      Open
  J_TEE_SNT1_V3OUT_875_920      -0.02      0.00      0.00      Open
  J_TEE_SNT1_920_CNT8_Stub       0.60      0.04      0.00      Open
  J_CNT8_Stub_CNT8_40       0.60      0.23      0.42      Open
  J_TEE_SNT1_920_1000      -0.62      0.04      0.00      Open
  J_TEE_SNT1_1000_CNT9_Stub       0.60      0.04      0.00      Open
  J_CNT9_Stub_CNT9_150       0.60      0.23      0.42      Open
  J_TEE_SNT1_1000_1056      -1.22      0.08      0.00      Open
  J_TEE_SNT1_1056_CNT10_Stub       0.60      0.04      0.00      Open
  J_CNT10_Stub_CNT10_150       0.60      0.23      0.42      Open
  J_TEE_SNT1_1056_1076      -1.82      0.12      0.00      Open
  J_TEE_SNT1_1076_CNT11_Stub       0.60      0.04      0.00      Open


  Page 21        Los Botines Vaquero Village - Water Distribution System
  Link Results at 0:00 Hrs: (continued)
  ----------------------------------------------------------------------
  Link                  Flow  VelocityUnit Headloss    Status
  ID                     GPM       fps    ft/Kft
  ----------------------------------------------------------------------
  J_CNT11_Stub_CNT11_150       0.60      0.23      0.42      Open
  J_TEE_SNT1_1076_1132      -2.42      0.16      0.00      Open
  J_TEE_SNT1_1132_CNT12_Stub       0.60      0.04      0.00      Open
  J_CNT12_Stub_CNT12_150       0.60      0.23      0.00      Open
  J_TEE_SNT1_1132_1152      -3.02      0.20      2.23      Open
  J_TEE_SNT1_1152_CNT13_Stub       0.60      0.04      0.00      Open
  J_CNT13_Stub_CNT13_150       0.60      0.23      0.42      Open
  J_TEE_SNT1_1152_1208      -3.62      0.24      1.12      Open
  J_TEE_SNT1_1208_CNT14_Stub       0.60      0.04      0.00      Open
  J_CNT14_Stub_CNT14_150       0.60      0.23      0.42      Open
  J_TEE_SNT1_1208_1264      -4.22      0.28      3.35      Open
  J_TEE_SNT1_1264_CNT15_Stub       0.60      0.04      0.00      Open
  J_CNT15_Stub_CNT15_150       0.60      0.23      0.42      Open
  J_TEE_SNT1_1264_1284      -4.82      0.32      3.13      Open
  J_TEE_SNT1_1284_CNT16_Stub       0.60      0.04      0.00      Open
  J_CNT16_Stub_CNT16_150       0.60      0.23      0.42      Open
  J_TEE_SNT1_1284_1340      -5.42      0.36      4.46      Open
  J_TEE_SNT1_1340_CNT17_Stub       0.60      0.04      0.00      Open
  J_CNT17_Stub_CNT17_150       0.60      0.23      0.42      Open
  J_TEE_SNT1_1340_1355      -6.02      0.40      4.17      Open
  J_TEE_SNT1_1355_CNT18_Stub       0.60      0.04      0.00      Open
  J_CNT18_Stub_CNT18_150       0.60      0.23      0.42      Open
  J_TEE_SNT1_1355_1370       1.20      0.08      0.00      Open
  J_TEE_SNT1_1370_CNT19_Stub       0.60      0.04      0.00      Open
  J_CNT19_Stub_CNT19_150       0.60      0.23      0.42      Open
  J_SNT1_1370_1400       0.00      0.00      0.00      Open
  J_TEE_SNT1_1400_CNT20_Stub       0.60      0.04      0.00      Open
  J_CNT20_Stub_CNT20_150       0.60      0.23      0.42      Open
  J_TEE_SNT1_1400_1415       0.00      0.00      0.00      Open
  J_TEE_SNT1_1400_CNT21_Stub       0.60      0.04      0.00      Open
  J_CNT21_Stub_CNT21_150       0.60      0.23      0.42      Open
  J_TEE_SNT1_SNT1_1415_1430       0.60      0.04      0.00      Open
  J_TEE_SNT1_1430_CNT21_Stub       0.60      0.04      0.00      Open
  J_CNT22_Stub_CNT22_150       0.60      0.23      0.42      Open
  J_TEE_SNT1_1430_1445      -1.20      0.08      0.00      Open
  J_TEE_SNT1_1445_RUN_IN     -16.23      1.09     62.50      Open
  J_TEE_SNT1_1445_CNT23_Stub       0.60      0.04      0.00      Open
  J_CNT23_Stub_CNT23_150       0.60      0.23      0.42      Open
  J_TEE_SNT1_1445_1460      16.23      1.09     37.50      Open
  J_TEE_SNT1_1460_CNT24_Stub       0.60      0.04      0.00      Open
  J_CNT24_Stub_CNT24_150       0.60      0.23      0.42      Open
  J_TEE_SNT1_1460_1475      15.63      1.05     33.33      Open
  J_TEE_SNT1_1475_CNT25_Stub       0.60      0.04      0.00      Open
  J_CNT25_Stub_CNT25_150       0.60      0.23      0.42      Open
  J_TEE_SNT1_1475_1570      15.03      1.01     32.24      Open
  J_TEE_SNT1_1570_CNT26_Stub       0.60      0.04      0.00      Open
  J_CNT26_Stub_CNT26_150       0.60      0.23      0.42      Open


  Page 22        Los Botines Vaquero Village - Water Distribution System
  Link Results at 0:00 Hrs: (continued)
  ----------------------------------------------------------------------
  Link                  Flow  VelocityUnit Headloss    Status
  ID                     GPM       fps    ft/Kft
  ----------------------------------------------------------------------
  J_TEE_SNT1_1570_1585       0.60      0.04      0.00      Open
  J_TEE_SNT1_1585_CNT27_Stub       0.60      0.04      0.00      Open
  J_CNT27_Stub_CNT27_150       0.60      0.23      0.42      Open
  J_TEE_SNT1_1585_1680       0.60      0.04      0.00      Open
  J_TEE_SNT1_1680_CNT28_Stub       0.60      0.04      0.00      Open
  J__CNT28_Stub_CNT28_150       0.60      0.23      0.42      Open
  J_TEE_SNT1_1680_1695      13.23      0.89     25.00      Open
  J_TEE_SNT1_1695_CNT28_Stub       0.60      0.04      0.00      Open
  J_CNT29_Stub_CNT29_Stub_150       0.60      0.23      0.42      Open
  J_TEE_SNT1_1695_1790      12.63      0.85     23.03      Open
  J_TEE_SNT1_1790_CNT30_Stub       0.60      0.04      0.00      Open
  J_CNT30_Stub_CNT30_150       0.60      0.23      0.42      Open
  J_TEE_SNT1_1790_1805      12.03      0.81     20.83      Open
  J_TEE_SNT1_1790_CNT31_Stub       0.60      0.04      0.00      Open
  J_CNT31_Stub_CNT31_150       0.60      0.23      0.00      Open
  J_TEE_SNT1_1805_1900      11.43      0.77     19.08      Open
  J_TEE_SNT1_1900_CNT32_Stub       0.60      0.04      0.00      Open
  J_CNT33_Stub_CNT32_150       0.60      0.23      0.00      Open
  J_TEE_SNT1_1900_1915      10.83      0.73     16.67      Open
  J_TEE_SNT1_1915_CNT33_Stub       0.60      0.04      0.00      Open
  J_CNT33_Stub_CNT33_150       0.60      0.23      0.42      Open
  J_TEE_SNT1_1915_2065      10.23      0.69     15.42      Open
  J_TEE_SNT1_2065_CNT34_Stub       0.60      0.04      0.00      Open
  J_TEE_CNT34_Stub_CNT34_150       0.60      0.23      0.00      Open
  J_TEE_SNT1_2065_2080       9.63      0.65     12.50      Open
  J_TEE_SNT1_2080_CNT35_Stub       0.60      0.04      0.00      Open
  J_CNT35_Stub_CNT35_150       0.60      0.23      0.42      Open
  J_TEE_SNT1_2080_2175       9.03      0.60     11.84      Open
  J_TEE_SNT1_2175_CNT36_Stub       0.60      0.04      0.00      Open
  J_CNT36_Stub_CNT35_150       0.60      0.23      0.42      Open
  J_TEE_SNT1_2175_2255       8.43      0.56     10.16      Open
  J_SNT1_V4_IN_2255       0.01      0.00      0.00      Open
  J_M1_SNT2_Stub_55      25.20      1.69     91.63      Open
  J_TEE_SNT2_Stub_55       9.00      0.60     11.75      Open
  J_TEE_SNT2_55_RUN_IN       0.60      0.04      0.00      Open
  J_TEE_SNT2_55_CNT37_Stub       0.60      0.04      0.00      Open
  J_CNT37_Stub_CNT37_90       0.60      0.23      0.00      Open
  J_CNT37_90_V5_STUB       0.00      0.00      0.00      Open
  J_SNT2_55_105         9.00      0.60     11.75      Open
  J_TEE_SNT2_105_CNT38_Stub       0.60      0.04      0.02      Open
  J_CNT38_Stub_CNT38_90       0.60      0.23      0.34      Open
  J_CNT38_105_V6_STUB       0.00      0.00      0.00      Open
  J_TEE_SNT2_105_185       9.00      0.60     11.75      Open
  J_TEE_SNT2_185_V7_STUB       9.00      0.60     11.75      Open
  J_SNT2_V7_OUT_185_210       9.00      0.60     11.75      Open
  J_SNT2_V8_IN_210       0.00      0.00      0.00      Open
  J_TEE_SNT2_V8_OUT_210_211       9.00      0.60     11.75      Open


  Page 23        Los Botines Vaquero Village - Water Distribution System
  Link Results at 0:00 Hrs: (continued)
  ----------------------------------------------------------------------
  Link                  Flow  VelocityUnit Headloss    Status
  ID                     GPM       fps    ft/Kft
  ----------------------------------------------------------------------
  J_TEE_SNT2_211_CNT39_Stub       0.60      0.04      0.02      Open
  J_CNT39_Stub_CNT39_150       0.60      0.23      0.34      Open
  J_TEE_SNT2_211_240       8.40      0.56     10.24      Open
  J_TEE_SNT2_240_CNT40_Stub       0.60      0.23      0.34      Open
  J_CNT40_Stub_CNT40_100       0.60      0.23      0.34      Open
  J_TEE_CNT40_100_RUN_IN       0.00      0.00      0.00      Open
  J_TEE_CNT40_100_CNT41_Stub       0.00      0.00      0.00      Open
  J_CNT41_Stub_CNT41_150       0.00      0.00      0.00      Open
  J_CNT41_250_V9_STUB       0.00      0.00      0.00      Open
  J_TEE_SNT2_240_265       7.20      0.48      7.53      Open
  J_TEE_SNT2_265_RUN_IN       0.00      0.00      0.00      Open
  J_TEE_SNT2_265_CNT42_Stub       0.60      0.04      0.01      Open
  J_CNT42_Stub_CNT42_150       0.60      0.23      0.34      Open
  J_TEE_SNT2_265_300       6.60      0.44      6.33      Open
  J_SNT2_300_RUN_IN       0.00      0.00      0.00      Open
  J_TEE_SNT2_300_CNT43_Stub       0.60      0.04      0.02      Open
  J_CNT43_Stub_CNT43_150       0.60      0.23      0.34      Open
  J_TEE_SNT2_300_365       6.00      0.40      5.24      Open
  J_TEE_SNT2_365_RUN_IN       0.00      0.00      0.00      Open
  J_TEE_SNT2_CNT44_Stub_365       0.60      0.04      0.01      Open
  J_CNT44_Stub_CNT44_365       0.60      0.23      0.34      Open
  J_TEE_SNT2_365_390       5.40      0.36      4.25      Open
  J_TEE_SNT2_390_RUN_IN       0.00      0.00      0.00      Open
  J_TEE_SNT2_CNT45_Stub_390       0.60      0.04      0.01      Open
  J_CNT45_Stub_CNT45_390       0.60      0.23      0.34      Open
  J_TEE_SNT2_390_415       4.80      0.32      3.36      Open
  J_TEE_SNT2_415_RUN_IN      -4.20      0.28      2.58      Open
  J_TEE_SNT2_415_CNT46_Stub_415       0.60      0.04      0.01      Open
  J_CNT46_Stub_CNT46_415       0.60      0.23      0.34      Open
  J_TEE_SNT2_415_440       4.20      0.28      2.58      Open
  J_TEE_SNT2_CNT47_Stub       0.60      0.04      0.01      Open
  J_CNT47_Stub_CNT47_440       0.60      0.23      0.34      Open
  J_TEE_SNT2_440_505       3.60      0.24      1.90      Open
  J_TEE_SNT2_505_RUN_IN       0.00      0.00      0.00      Open
  J_TEE_SNT2_505_CNT48_Stub       0.60      0.04      0.02      Open
  J_CNT48_Stub_CNT48_505       0.60      0.23      0.34      Open
  J_TEE_SNT2_505_535       3.00      0.20      1.27      Open
  J_TEE_SNT2_535_RUN_IN       0.00      0.00      0.00      Open
  J_TEE_SNT2_535_CNT49_Stub       0.60      0.04      0.02      Open
  J_CNT49_Stub_CNT48_535       0.60      0.23      0.34      Open
  J_TEE_SNT2_535_580       2.40      0.16      0.45      Open
  J_TEE_SNT2_580_RUN_IN       0.00      0.00      0.00      Open
  J_TEE_SNT2_580_CNT50_Stub       0.60      0.04      0.01      Open
  J_CNT50_Stub_CNT50_580       0.60      0.23      0.34      Open
  J_TEE_SNT2_580_625       1.80      0.12      0.05      Open
  J_TEE_SNT2_625_RUN_IN       0.00      0.00      0.00      Open
  J_TEE_SNT2_625_CNT51_Stub       0.60      0.04      0.02      Open


  Page 24        Los Botines Vaquero Village - Water Distribution System
  Link Results at 0:00 Hrs: (continued)
  ----------------------------------------------------------------------
  Link                  Flow  VelocityUnit Headloss    Status
  ID                     GPM       fps    ft/Kft
  ----------------------------------------------------------------------
  J_CNT51_Stub_CNT51_625       0.60      0.23      0.34      Open
  J_TEE_SNT2_625_670       1.20      0.08      0.02      Open
[...]
  J_CNT41_Stub_CNT41_150       0.00      0.00      0.00      Open
  J_CNT41_250_V9_STUB       0.00      0.00      0.00      Open
  J_TEE_SNT2_240_265       7.20      0.48      7.53      Open
  J_TEE_SNT2_265_RUN_IN       0.00      0.00      0.00      Open
  J_TEE_SNT2_265_CNT42_Stub       0.60      0.04      0.02      Open
  J_CNT42_Stub_CNT42_150       0.60      0.23      0.34      Open
  J_TEE_SNT2_265_300       6.60      0.44      6.34      Open
  J_SNT2_300_RUN_IN       0.00      0.00      0.00      Open
  J_TEE_SNT2_300_CNT43_Stub       0.60      0.04      0.02      Open
  J_CNT43_Stub_CNT43_150       0.60      0.23      0.34      Open
  J_TEE_SNT2_300_365       6.00      0.40      5.24      Open
  J_TEE_SNT2_365_RUN_IN       0.00      0.00      0.00      Open
  J_TEE_SNT2_CNT44_Stub_365       0.60      0.04      0.00      Open
  J_CNT44_Stub_CNT44_365       0.60      0.23      0.34      Open
  J_TEE_SNT2_365_390       5.40      0.36      4.25      Open
  J_TEE_SNT2_390_RUN_IN       0.00      0.00      0.00      Open
  J_TEE_SNT2_CNT45_Stub_390       0.60      0.04      0.02      Open
  J_CNT45_Stub_CNT45_390       0.60      0.23      0.34      Open
  J_TEE_SNT2_390_415       4.80      0.32      3.36      Open
  J_TEE_SNT2_415_RUN_IN      -4.20      0.28      2.58      Open
  J_TEE_SNT2_415_CNT46_Stub_415       0.60      0.04      0.00      Open
  J_CNT46_Stub_CNT46_415       0.60      0.23      0.34      Open
  J_TEE_SNT2_415_440       4.20      0.28      2.58      Open
  J_TEE_SNT2_CNT47_Stub       0.60      0.04      0.00      Open
  J_CNT47_Stub_CNT47_440       0.60      0.23      0.34      Open
  J_TEE_SNT2_440_505       3.60      0.24      1.90      Open
  J_TEE_SNT2_505_RUN_IN       0.00      0.00      0.00      Open
  J_TEE_SNT2_505_CNT48_Stub       0.60      0.04      0.02      Open
  J_CNT48_Stub_CNT48_505       0.60      0.23      0.34      Open
  J_TEE_SNT2_505_535       3.00      0.20      1.27      Open
  J_TEE_SNT2_535_RUN_IN       0.00      0.00      0.00      Open
  J_TEE_SNT2_535_CNT49_Stub       0.60      0.04      0.02      Open
  J_CNT49_Stub_CNT48_535       0.60      0.23      0.34      Open
  J_TEE_SNT2_535_580       2.40      0.16      0.45      Open
  J_TEE_SNT2_580_RUN_IN       0.00      0.00      0.00      Open
  J_TEE_SNT2_580_CNT50_Stub       0.60      0.04      0.02      Open
  J_CNT50_Stub_CNT50_580       0.60      0.23      0.34      Open
  J_TEE_SNT2_580_625       1.80      0.12      0.05      Open
  J_TEE_SNT2_625_RUN_IN       0.00      0.00      0.00      Open
  J_TEE_SNT2_625_CNT51_Stub       0.60      0.04      0.02      Open


  Page 1124      Los Botines Vaquero Village - Water Distribution System
  Link Results at 2:00 Hrs: (continued)
  ----------------------------------------------------------------------
  Link                  Flow  VelocityUnit Headloss    Status
  ID                     GPM       fps    ft/Kft
  ----------------------------------------------------------------------
  J_CNT51_Stub_CNT51_625       0.60      0.23      0.34      Open
  J_TEE_SNT2_625_670       1.20      0.08      0.02      Open
  J_TEE_SNT2_670_RUN_IN       0.00      0.00      0.00      Open
  J_TEE_SNT2_670_CNT52_Stub       0.60      0.04      0.00      Open
  J_CNT52_Stub_CNT52_670       0.60      0.23      0.34      Open
  J_TEE_SNT2_670_715       0.60      0.04      0.01      Open
  J_TEE_SNT2_715_RUN_IN       0.00      0.00      0.00      Open
  J_TEE_SNT2_715_CNT53_Stub       0.60      0.04      0.02      Open
  J_CNT53_Stub_715_CNT53_715       0.60      0.23      0.34      Open
  J_TEE_SNT2_715_840       0.00      0.00      0.00      Open
  J_SNT2_V10_IN_840       0.00      0.00      0.00      Open
  J_TEE_SNT2_V10_OUT_840_845       0.00      0.00      0.00      Open
  J_TEE_SNT2_845_RUN_IN       0.00      0.00      0.00      Open
  J_TEE_SNT2_845_SNT3_Stub       3.00      0.20      1.28      Open
  J_SNT3_Stub_SNT3_75       3.00      0.20      1.27      Open
  J_TEE_SNT3_75_RUN_IN       3.00      0.20      1.28      Open
  J_TEE_SNT3_75_CNT54_Stub       0.60      0.04      0.00      Open
  J_CNT54_Stub_75_CNT54_75       0.60      0.23      0.34      Open
  J_TEE_SNT3_75_130       2.40      0.16      0.45      Open
  J_TEE_SNT3_130_RUN_IN       0.00      0.00      0.00      Open
  J_TEE_SNT3_130_CNT55_Stub       0.60      0.04      0.02      Open
  J_CNT55_Stub_130_CNT54_55       0.60      0.23      0.34      Open
  J_TEE_SNT3_130_185       1.80      0.12      0.05      Open
  J_TEE_SNT3_185_RUN_IN      -1.20      0.08      0.02      Open
  J_TEE_SNT3_185_CNT56_Stub       0.60      0.04      0.02      Open
  J_CNT56_Stub_185_CNT56_185       0.60      0.23      0.34      Open
  J_TEE_SNT3_185_240       1.20      0.08      0.02      Open
  J_TEE_SNT3_240_RUN_IN      -0.60      0.04      0.02      Open
  J_SNT3_240_CNT57_Stub       0.60      0.04      0.02      Open
  J_CNT57_Stub_CNT57_240       0.60      0.23      0.34      Open
  J_TEE_SNT3_240_295       0.60      0.04      0.01      Open
  J_TEE_SNT3_295_RUN_IN       0.00      0.00      0.00      Open
  J_TEE_SNT3_295_CNT58_Stub       0.60      0.04      0.02      Open
  J_CNT58_Stub_CNT58_295       0.60      0.23      0.34      Open
  J_TEE_SNT2_845_850      -3.00      0.20      1.27      Open
  J_TEE_SNT2_855_RUN_IN      -0.60      0.04      0.02      Open
  J_TEE_SNT2_855_CNT59_Stub       0.60      0.04      0.02      Open
  J_CNT59_Stub_CNT59_855       0.60      0.23      0.34      Open
  J_TEE_SNT2_855_875       0.60      0.04      0.01      Open
  J_TEE_SNT2_875_CNT60_Stub       0.60      0.04      0.00      Open
  J_CNT60_Stub_CNT60_875       0.60      0.23      0.34      Open
  J_SNT2_875_1050       0.00      0.00      0.00      Open
  J_SNT2_V11_IN_1050_Stub       0.00      0.00      0.00      Open
  J_SNT2_V11_OUT_1050_1055       0.00      0.00      0.00      Open
  J_SNT2_1055_RUN_IN       0.00      0.00      0.00      Open
  J_TEE_SNT2_1055_SNT4_Stub       1.80      0.12      0.06      Open
  J_SNT4_Stub_SNT4_20       1.80      0.12      0.05      Open


  Page 1125      Los Botines Vaquero Village - Water Distribution System
  Link Results at 2:00 Hrs: (continued)
  ----------------------------------------------------------------------
  Link                  Flow  VelocityUnit Headloss    Status
  ID                     GPM       fps    ft/Kft
  ----------------------------------------------------------------------
  J_TEE_SNT4_20_RUN_IN       0.00      0.00      0.00      Open
  J_TEE_SNT4_20_CNT61_Stub       0.00      0.00      0.00      Open
  J_TEE_SNT4_20_70       0.60      0.04      0.01      Open
  J_TEE_SNT4_70_CNT62_Stub       0.60      0.04      0.02      Open
  J_CNT62_Stub_CNT62_15       0.60      0.23      0.34      Open
  J_TEE_SNT4_70_120       0.00      0.00      0.00      Open
  J_TEE_SNT4_120_CNT63_Stub       0.60      0.04      0.00      Open
  J_CNT63_Stub_CNT63_120       0.60      0.23      0.34      Open
  J_TEE_SNT4_120_170       0.60      0.04      0.01      Open
  J_TEE_SNT4_170_CNT64_Stub       0.60      0.04      0.02      Open
  J_CNT64_Stub_CNT64_170       0.60      0.23      0.34      Open
  J_SNT2_1055_1170      10.20      0.68     15.08      Open
  J_SNT2_V12_IN_Stub_1170       0.00      0.00      0.00      Open
  J_SNT2_V12_OUT_1170_1175       0.00      0.00      0.00      Open
  J_TEE_SNT2_1175_RUN_IN       2.77      0.19      0.95      Open
  J_TEE_SNT2_1175_SNT5_Stub       7.43      0.50      8.03      Open
  J_SNT5_Stub_SNT5_125       0.00      0.00      0.00      Open
  J_TEE_SNT5_125_RUN_IN      -6.83      0.46      6.79      Open
  J_TEE_SNT5_125_CNT65_Stub       0.60      0.04      0.02      Open
  J_CNT65_Stub_CNT65_125       0.60      0.23      0.34      Open
  J_TEE_SNT5_125_130       6.83      0.46      6.78      Open
  J_SNT5_BEND_IN_130       0.00      0.00      0.00      Open
  J_SNT5_BEND_OUT_130       9.00      0.60     11.75      Open
  J_SNT5_BEND_OUT_130_145       9.00      0.60     11.75      Open
  J_TEE_SNT5_145_RUN_IN      -8.40      0.56     10.24      Open
  J_TEE_SNT5_145_CNT66_Stub       0.60      0.04      0.02      Open
  J_CNT66_Stub_CNT66_145       0.60      0.23      0.34      Open
  J_TEE_SNT5_145_165       8.40      0.56     10.24      Open
  J_TEE_SNT5_165_CNT67_Stub       0.60      0.04      0.02      Open
  J_CNT67_Stub_CNT67_165       0.60      0.23      0.34      Open
  J_TEE_SNT5_165_190       7.80      0.52      8.83      Open
  J_TEE_SNT5_190_CNT68_Stub       0.60      0.04      0.02      Open
  J_CNT68_Stub_CNT68_190       0.60      0.23      0.34      Open
  J_TEE_SNT5_190_260       7.20      0.48      7.53      Open
  J_TEE_SNT5_260_RUN_IN       0.00      0.00      0.00      Open
  J_TEE_SNT5_260_CNT69_Stub       0.60      0.04      0.02      Open
  J_CNT69_Stub_CNT69_260       0.60      0.23      0.34      Open
  J_TEE_SNT5__260_310       6.60      0.44      6.33      Open
  J_TEE_SNT5_310_CNT70_Stub       0.60      0.04      0.02      Open
  J_CNT70_Stub_CNT70_310       0.60      0.23      0.34      Open
  J_TEE_SNT5_310_325       6.00      0.40      5.24      Open
  J_TEE_SNT5_325_CNT71_Stub       0.60      0.04      0.00      Open
  J_CNT71_Stub_CNT71_325       0.60      0.23      0.34      Open
  J_TEE_SNT5_325_400       5.40      0.36      4.25      Open
  J_TEE_SNT5_400_CNT72_Stub       0.60      0.04      0.00      Open
  J_CNT72_Stub_CNT72_400       0.60      0.23      0.34      Open
  J_TEE_SNT5_400_415       4.80      0.32      3.36      Open


  Page 1126      Los Botines Vaquero Village - Water Distribution System
  Link Results at 2:00 Hrs: (continued)
  ----------------------------------------------------------------------
  Link                  Flow  VelocityUnit Headloss    Status
  ID                     GPM       fps    ft/Kft
  ----------------------------------------------------------------------
  J_TEE_SNT5_415_CNT73_Stub       0.60      0.04      0.02      Open
  J_CNT73_Stub_CNT73_415       0.60      0.23      0.34      Open
  J_TEE_SNT5_415_430       4.20      0.28      2.58      Open
  J_TEE_SNT5_430_RUN_IN       0.00      0.00      0.00      Open
  J_TEE_SNT5_430_CNT74_Stub       0.60      0.04      0.00      Open
  J_CNT74_Stub_CNT74_430       0.60      0.23      0.34      Open
  J_TEE_SNT5_430_495       3.60      0.24      1.90      Open
  J_TEE_SNT5_495_CNT75_Stub       0.60      0.04      0.02      Open
  J_CNT75_Stub_CNT75_495       0.60      0.23      0.34      Open
  J_TEE_SNT5_495_530       3.00      0.20      1.27      Open
  J_TEE_SNT5_530_CNT76_Stub       0.60      0.04      0.02      Open
  J_CNT76_Stub_CNT76_530       0.60      0.23      0.34      Open
  J_SNT5_530_565        2.40      0.16      0.45      Open
  J_TEE_SNT5_565_CNT77_Stub       0.60      0.04      0.02      Open
  J_CNT77_Stub_CNT77_565       0.60      0.23      0.34      Open
  J_TEE_SNT5_565_620       1.80      0.12      0.05      Open
  J_TEE_SNT5_620_CNT78_Stub       0.60      0.04      0.00      Open
  J_CNT78_Stub_CNT78_620       0.60      0.23      0.34      Open
  J_TEE_SNT5_620_695       1.20      0.08      0.02      Open
  J_TEE_SNT5_695_RUN_IN       0.00      0.00      0.00      Open
  J_TEE_SNT5_695_CNT79_Stub       1.20      0.08      0.02      Open
  J_CNT79_Stub_CNT79_695       1.20      0.46     59.39      Open
  J_TEE_SNT5_695_770       0.00      0.00      0.00      Open
  J_SNT5_770_CNT80_Stub      -0.60      0.04      0.02      Open
  J_CNT80_Stub_CNT80_770      -0.60      0.23      0.34      Open
  J_TEE_SNT5_770_800       0.60      0.04      0.01      Open
  J_SNT5_770_CNT81_Stub       0.60      0.04      0.00      Open
  J_CNT81_Stub_CNT81_800       0.60      0.23      0.34      Open
  J_TEE_SNT2_1175_1190       2.77      0.19      0.95      Open
  J_TEE_SNT2_1190_CNT82_Stub       0.60      0.04      0.00      Open
  J_CNT82_Stub_CNT82_1190       0.60      0.23      0.34      Open
  J_TEE_SNT2_1190_1285       2.17      0.15      0.23      Open
  J_TEE_SNT2_1285_RUN_IN       0.00      0.00      0.00      Open
  J_TEE_SNT2_1285_SNT6_Stub       0.00      0.00      0.00      Open
  J_SNT6_Stub_SNT6_80       0.00      0.00      0.00      Open
  J_SNT6_80_V13_IN_Stub       2.17      0.15      0.23      Open
  J_TEE_SNT2_1285_1365       0.00      0.00      0.00      Open
  J_TEE_SNT2_1385_RUN_IN       0.00      0.00      0.00      Open
  J_TEE_SNT2_1365_Stub       0.00      0.00      0.00      Open
  J_SNT7_Stub_SNT7_190       0.00      0.00      0.00      Open
  J_SNT7_190_V14_IN_190_Stub       0.00      0.00      0.00      Open
  J_TEE_SNT2_1365_1490       0.00      0.00      0.00      Open
  J_SNT2_V15_IN_1490_Stub       0.00      0.00      0.00      Open
  J_TEE_IN_SNT1_525       0.00      0.00      0.00      Open
  J_TEE_OUT_CNT2_Stub       0.00      0.00      0.00      Open
  J_TEE_OUT_525_CNT2       0.00      0.00      0.00      Open
  J_TEE_OUT_SNT1_525_580       0.00      0.00      0.00      Open


  Page 1127      Los Botines Vaquero Village - Water Distribution System
  Link Results at 2:00 Hrs: (continued)
  ----------------------------------------------------------------------
  Link                  Flow  VelocityUnit Headloss    Status
  ID                     GPM       fps    ft/Kft
  ----------------------------------------------------------------------
  J_TEE_SNT1_795_CNT7_Stub       0.60      0.04      0.00      Open
  FIX_J_SNT1_525_J_TEE_SNT1_525      -3.00      0.20      0.00      Open
  FIX_J_SNT1_580_J_TEE_SNT1_580      -2.40      0.16      0.00      Open
  FIX_001               4.82      0.32      0.00      Open
  FIX_002              18.03      1.21     62.50      Open
  FIX_003              -9.63      0.65      0.00      Open
  FIX_004               0.60      0.04      0.00      Open
  FIX_005             -10.83      0.73      0.00      Open
  FIX_006              -0.60      0.04      0.00      Open
  FIX_007             -12.03      0.81      0.00      Open
  FIX_008              -9.03      0.60      0.00      Open
  FIX_009             -10.23      0.69     62.50      Open
  FIX_010              -1.80      0.12      0.00      Open
  FIX_011              -7.20      0.48      7.54      Open
  FIX_012               9.00      0.60     11.75      Open
  FIX_013              -4.20      0.28      2.58      Open
  FIX_014              -1.20      0.08      0.02      Open
  FIX_015               4.22      0.28      0.00      Open
  FIX_016             -14.43      0.97      0.00      Open
  FIX_017               0.00      0.00      0.00      Open
  FIX_018              -0.60      0.04      0.00      Open
  FIX_019               4.20      0.28      2.58      Open
  FIX_020              12.00      0.80     20.84      Open
  FIX_021               0.00      0.00      0.00      Open
  FIX_022               1.20      0.08      0.03      Open
  FIX_023              -1.20      0.08      0.00      Open
  FIX_024              -7.80      0.52      8.83      Open
  FIX_025               0.00      0.00      0.00      Open
  FIX_026              -0.60      0.04      0.00      Open
  FIX_027               3.02      0.20      0.00      Open
  FIX_028               4.20      0.28      2.58      Open
  FIX_029              -2.17      0.15      0.23      Open
  FIX_030              -6.60      0.44      6.33      Open
  FIX_031               3.62      0.24      0.00      Open
  FIX_032              -3.60      0.24      1.89      Open
  FIX_033             -11.43      0.77      0.00      Open
  FIX_034             -15.03      1.01      0.00      Open
  FIX_035              -5.40      0.36      4.24      Open
  FIX_036              -4.80      0.32      3.36      Open
  FIX_037              -8.43      0.56      0.00      Open
  FIX_038              -9.00      0.60     11.75      Open
  FIX_039               1.82      0.12      0.00      Open
  FIX_040               6.02      0.40      0.00      Open
  FIX_041              -2.40      0.16      0.46      Open
  FIX_042              -1.80      0.12      0.00      Open
  FIX_043              -8.42      0.56      0.00      Open
  FIX_044               7.82      0.52      0.00      Open


  Page 1128      Los Botines Vaquero Village - Water Distribution System
  Link Results at 2:00 Hrs: (continued)
  ----------------------------------------------------------------------
  Link                  Flow  VelocityUnit Headloss    Status
  ID                     GPM       fps    ft/Kft
  ----------------------------------------------------------------------
  FIX_045              -6.00      0.40      5.25      Open
  FIX_046             -10.20      0.68     15.08      Open
  FIX_047              -2.77      0.19      0.95      Open
  FIX_048              -3.00      0.20      1.27      Open
  FIX_049               7.43      0.50      8.01      Open
  FIX_050             -15.63      1.05      0.00      Open
  FIX_051              -0.60      0.04      0.00      Open
  FIX_052               0.60      0.04      0.00      Open
  FIX_053               0.00      0.00      0.00      Open
  FIX_054              -1.80      0.12      0.06      Open
  FIX_055             -12.63      0.85     62.50      Open
  FIX_056               0.00      0.00      0.00      Open
  FIX_057               2.42      0.16      0.00      Open
  FIX_058               5.42      0.36      0.00      Open
  FIX_059               0.00      0.00      0.00      Open
  FIX_060               0.00      0.00      0.00      Open
  BRIDGE_001           -0.60      0.04      0.02      Open
  BRIDGE_002           -8.43      0.56      0.00      Open
  BRIDGE_003          -10.20      0.68     15.08      Open
  BRIDGE_004           -1.80      0.12      0.00      Open
  BRIDGE_005            0.00      0.00      0.00      Open
  BRIDGE_006            0.00      0.00      0.00      Open
  BRIDGE_007            0.00      0.00      0.00      Open
  FINAL_001            -2.17      0.15      0.23      Open
  FINAL_002             0.00      0.00      0.00      Open
  FINAL_003             0.00      0.00      0.00      Open
  FINAL_004            -0.60      0.04      0.00      Open
  VALVE_001             0.00      0.00      0.00      Open
  VALVE_002             0.00      0.00      0.00      Open
  VALVE_003            -2.17      0.15      0.24      Open
  VALVE_004             0.00      0.00      0.00      Open
  FIX_360               0.00      0.00      0.00      Open
  P_LOOP_V14_V15        0.00      0.00      0.00      Open
  P_LOOP_V13_SNT5       2.17      0.15      0.23      Open
  WELL_PUMP            48.11      0.00     55.74      Open Pump
  BOOSTER_PUMP        111.40      0.00     35.20      Open Pump
  V1                   22.23      1.49 496011.40    Active Valve
  V2                   22.23      1.49 496009.80    Active Valve
  V3                    0.00      0.00      0.00      Open Valve
  V4                    0.00      0.00      0.00    Active Valve
  V5                    0.00      0.00      0.00    Active Valve
  V6                    0.00      0.00      0.00    Active Valve
  V7                    9.00      0.60      0.00    Active Valve
  V8                    0.00      0.00      0.00      Open Valve
  V9                    0.00      0.00      0.00    Active Valve
  V10                   0.00      0.00      0.00      Open Valve
  V11                   0.00      0.00      0.00      Open Valve


  Page 1129      Los Botines Vaquero Village - Water Distribution System
  Link Results at 2:00 Hrs: (continued)
  ----------------------------------------------------------------------
  Link                  Flow  VelocityUnit Headloss    Status
  ID                     GPM       fps    ft/Kft
  ----------------------------------------------------------------------
  V12                   0.00      0.00      0.00      Open Valve
  V13                   2.17      0.15      0.00    Active Valve
  V14                   0.00      0.00      0.00    Active Valve
  V15                   0.00      0.00      0.00    Active Valve
  
